<?xml version="1.0" encoding="UTF-8"?>

<!-- generated on 2023-10-08 10:20:09 by Eclipse SUMO jtrrouter Version 1.10.0
<configuration xmlns:xsi="http://www.w3.org/2001/XMLSchema-instance" xsi:noNamespaceSchemaLocation="http://sumo.dlr.de/xsd/jtrrouterConfiguration.xsd">

    <input>
        <net-file value="3_3tl_vl.net.xml"/>
        <route-files value="0917xcp6.trips.xml,0917xcp7.trips.xml,0917xcp75.trips.xml,0917xcp8.trips.xml,0917xcp9.trips.xml"/>
        <turn-ratio-files value="3_3_1.turndefs.xml"/>
    </input>

    <output>
        <output-file value="0917xcturn6_9.rou.xml"/>
    </output>

    <processing>
        <no-internal-links value="true"/>
        <accept-all-destinations value="true"/>
    </processing>

</configuration>
-->

<routes xmlns:xsi="http://www.w3.org/2001/XMLSchema-instance" xsi:noNamespaceSchemaLocation="http://sumo.dlr.de/xsd/routes_file.xsd">
    <vehicle id="0.0" depart="0.00">
        <route edges="9_8 8_S2"/>
    </vehicle>
    <vehicle id="0.1" depart="2.00">
        <route edges="5_4 4_7 7_8 8_9 9_E3"/>
    </vehicle>
    <vehicle id="0.2" depart="4.00">
        <route edges="E3_9 9_6 6_E2"/>
    </vehicle>
    <vehicle id="0.3" depart="6.00">
        <route edges="S3_9 9_6 6_5 5_8 8_7 7_S1"/>
    </vehicle>
    <vehicle id="0.4" depart="8.00">
        <route edges="6_5 5_4 4_7 7_8 8_5 5_2 2_N2"/>
    </vehicle>
    <vehicle id="0.5" depart="10.00">
        <route edges="4_7 7_8 8_9 9_6 6_5 5_2 2_3 3_N3"/>
    </vehicle>
    <vehicle id="0.6" depart="12.00">
        <route edges="1_4 4_W2"/>
    </vehicle>
    <vehicle id="0.7" depart="14.00">
        <route edges="9_8 8_S2"/>
    </vehicle>
    <vehicle id="0.8" depart="16.00">
        <route edges="4_7 7_8 8_9 9_6 6_3 3_2 2_N2"/>
    </vehicle>
    <vehicle id="0.9" depart="18.00">
        <route edges="N2_2 2_1 1_W1"/>
    </vehicle>
    <vehicle id="0.10" depart="20.00">
        <route edges="N2_2 2_1 1_W1"/>
    </vehicle>
    <vehicle id="0.11" depart="22.00">
        <route edges="5_6 6_9 9_8 8_5 5_2 2_N2"/>
    </vehicle>
    <vehicle id="0.12" depart="24.00">
        <route edges="W2_4 4_7"/>
    </vehicle>
    <vehicle id="0.13" depart="26.00">
        <route edges="2_5 5_4 4_1 1_2 2_N2"/>
    </vehicle>
    <vehicle id="0.14" depart="28.00">
        <route edges="S1_7 7_4 4_W2"/>
    </vehicle>
    <vehicle id="0.15" depart="30.00">
        <route edges="N2_2 2_1 1_W1"/>
    </vehicle>
    <vehicle id="0.16" depart="32.00">
        <route edges="8_5 5_6 6_9 9_E3"/>
    </vehicle>
    <vehicle id="0.17" depart="34.00">
        <route edges="6_3 3_N3"/>
    </vehicle>
    <vehicle id="0.18" depart="36.00">
        <route edges="N3_3 3_6 6_9 9_8 8_7 7_4 4_W2"/>
    </vehicle>
    <vehicle id="0.19" depart="38.00">
        <route edges="S2_8 8_5 5_4 4_1 1_2 2_3 3_E1"/>
    </vehicle>
    <vehicle id="0.20" depart="40.00">
        <route edges="E2_6 6_9 9_8 8_5 5_6 6_3 3_2 2_1 1_N1"/>
    </vehicle>
    <vehicle id="0.21" depart="42.00">
        <route edges="4_7 7_8 8_5 5_2 2_1 1_W1"/>
    </vehicle>
    <vehicle id="0.22" depart="44.00">
        <route edges="2_3 3_6"/>
    </vehicle>
    <vehicle id="0.23" depart="46.00">
        <route edges="2_5 5_6 6_3 3_2 2_N2"/>
    </vehicle>
    <vehicle id="0.24" depart="48.00">
        <route edges="9_8 8_7 7_S1"/>
    </vehicle>
    <vehicle id="0.25" depart="50.00">
        <route edges="5_8 8_9 9_E3"/>
    </vehicle>
    <vehicle id="0.26" depart="52.00">
        <route edges="5_2 2_N2"/>
    </vehicle>
    <vehicle id="0.27" depart="54.00">
        <route edges="9_8 8_7 7_S1"/>
    </vehicle>
    <vehicle id="0.28" depart="56.00">
        <route edges="4_1 1_2 2_N2"/>
    </vehicle>
    <vehicle id="0.29" depart="58.00">
        <route edges="4_1 1_2 2_3 3_6 6_E2"/>
    </vehicle>
    <vehicle id="0.30" depart="60.00">
        <route edges="W3_7 7_4"/>
    </vehicle>
    <vehicle id="0.31" depart="62.00">
        <route edges="8_7 7_8"/>
    </vehicle>
    <vehicle id="0.32" depart="64.00">
        <route edges="S1_7 7_8 8_S2"/>
    </vehicle>
    <vehicle id="0.33" depart="66.00">
        <route edges="4_7 7_8 8_9 9_E3"/>
    </vehicle>
    <vehicle id="0.34" depart="68.00">
        <route edges="5_6 6_9 9_E3"/>
    </vehicle>
    <vehicle id="0.35" depart="70.00">
        <route edges="4_5 5_6 6_E2"/>
    </vehicle>
    <vehicle id="0.36" depart="72.00">
        <route edges="S2_8 8_5 5_4 4_1 1_N1"/>
    </vehicle>
    <vehicle id="0.37" depart="74.00">
        <route edges="9_8 8_5 5_4 4_7 7_S1"/>
    </vehicle>
    <vehicle id="0.38" depart="76.00">
        <route edges="W1_1 1_2 2_N2"/>
    </vehicle>
    <vehicle id="0.39" depart="78.00">
        <route edges="5_2 2_1 1_W1"/>
    </vehicle>
    <vehicle id="0.40" depart="80.00">
        <route edges="8_7 7_4 4_W2"/>
    </vehicle>
    <vehicle id="0.41" depart="82.00">
        <route edges="8_9 9_6"/>
    </vehicle>
    <vehicle id="0.42" depart="84.00">
        <route edges="6_5 5_4 4_7 7_8 8_9 9_E3"/>
    </vehicle>
    <vehicle id="0.43" depart="86.00">
        <route edges="W3_7 7_8 8_S2"/>
    </vehicle>
    <vehicle id="0.44" depart="88.00">
        <route edges="2_5 5_4 4_W2"/>
    </vehicle>
    <vehicle id="0.45" depart="90.00">
        <route edges="2_5 5_6 6_9 9_8 8_7 7_4 4_5 5_8 8_S2"/>
    </vehicle>
    <vehicle id="0.46" depart="92.00">
        <route edges="N2_2 2_3 3_6 6_E2"/>
    </vehicle>
    <vehicle id="0.47" depart="94.00">
        <route edges="2_3 3_E1"/>
    </vehicle>
    <vehicle id="0.48" depart="96.00">
        <route edges="W3_7 7_8 8_S2"/>
    </vehicle>
    <vehicle id="0.49" depart="98.00">
        <route edges="W3_7 7_8 8_5 5_6 6_E2"/>
    </vehicle>
    <vehicle id="0.50" depart="100.00">
        <route edges="1_2 2_5 5_8 8_7 7_4 4_W2"/>
    </vehicle>
    <vehicle id="0.51" depart="102.00">
        <route edges="E1_3 3_2 2_1 1_4 4_W2"/>
    </vehicle>
    <vehicle id="0.52" depart="104.00">
        <route edges="5_2 2_N2"/>
    </vehicle>
    <vehicle id="0.53" depart="106.00">
        <route edges="2_5 5_4"/>
    </vehicle>
    <vehicle id="0.54" depart="108.00">
        <route edges="7_4 4_1 1_2 2_N2"/>
    </vehicle>
    <vehicle id="0.55" depart="110.00">
        <route edges="S2_8 8_7 7_4 4_W2"/>
    </vehicle>
    <vehicle id="0.56" depart="112.00">
        <route edges="7_8 8_S2"/>
    </vehicle>
    <vehicle id="0.57" depart="114.00">
        <route edges="W1_1 1_2 2_N2"/>
    </vehicle>
    <vehicle id="0.58" depart="116.00">
        <route edges="5_4 4_7 7_W3"/>
    </vehicle>
    <vehicle id="0.59" depart="118.00">
        <route edges="8_9 9_S3"/>
    </vehicle>
    <vehicle id="0.60" depart="120.00">
        <route edges="N1_1 1_2 2_N2"/>
    </vehicle>
    <vehicle id="0.61" depart="122.00">
        <route edges="N2_2 2_1 1_4 4_5 5_6 6_9 9_E3"/>
    </vehicle>
    <vehicle id="0.62" depart="124.00">
        <route edges="1_2 2_5 5_6 6_E2"/>
    </vehicle>
    <vehicle id="0.63" depart="126.00">
        <route edges="1_2 2_3 3_E1"/>
    </vehicle>
    <vehicle id="0.64" depart="128.00">
        <route edges="S2_8 8_9"/>
    </vehicle>
    <vehicle id="0.65" depart="130.00">
        <route edges="5_6 6_3 3_N3"/>
    </vehicle>
    <vehicle id="0.66" depart="132.00">
        <route edges="S2_8 8_5 5_2 2_1 1_4 4_5 5_8 8_9 9_6 6_E2"/>
    </vehicle>
    <vehicle id="0.67" depart="134.00">
        <route edges="2_5 5_6"/>
    </vehicle>
    <vehicle id="0.68" depart="136.00">
        <route edges="2_3 3_E1"/>
    </vehicle>
    <vehicle id="0.69" depart="138.00">
        <route edges="N1_1 1_2 2_3 3_N3"/>
    </vehicle>
    <vehicle id="0.70" depart="140.00">
        <route edges="7_8 8_5 5_6 6_9 9_E3"/>
    </vehicle>
    <vehicle id="0.71" depart="142.00">
        <route edges="5_2 2_3 3_6 6_9 9_8 8_S2"/>
    </vehicle>
    <vehicle id="0.72" depart="144.00">
        <route edges="6_5 5_8 8_S2"/>
    </vehicle>
    <vehicle id="0.73" depart="146.00">
        <route edges="8_5 5_2 2_3 3_6 6_9 9_8 8_S2"/>
    </vehicle>
    <vehicle id="0.74" depart="148.00">
        <route edges="4_5"/>
    </vehicle>
    <vehicle id="0.75" depart="150.00">
        <route edges="W3_7 7_4"/>
    </vehicle>
    <vehicle id="0.76" depart="152.00">
        <route edges="6_9 9_E3"/>
    </vehicle>
    <vehicle id="0.77" depart="154.00">
        <route edges="3_2 2_N2"/>
    </vehicle>
    <vehicle id="0.78" depart="156.00">
        <route edges="5_6 6_9"/>
    </vehicle>
    <vehicle id="0.79" depart="158.00">
        <route edges="4_7 7_8 8_5 5_6 6_9 9_8 8_S2"/>
    </vehicle>
    <vehicle id="0.80" depart="160.00">
        <route edges="2_3 3_6 6_9 9_8 8_7 7_W3"/>
    </vehicle>
    <vehicle id="0.81" depart="162.00">
        <route edges="4_7 7_W3"/>
    </vehicle>
    <vehicle id="0.82" depart="164.00">
        <route edges="S2_8 8_5 5_6 6_3 3_2 2_1 1_4 4_7 7_8 8_S2"/>
    </vehicle>
    <vehicle id="0.83" depart="166.00">
        <route edges="5_2 2_N2"/>
    </vehicle>
    <vehicle id="0.84" depart="168.00">
        <route edges="4_5 5_2 2_N2"/>
    </vehicle>
    <vehicle id="0.85" depart="170.00">
        <route edges="W2_4 4_5 5_2 2_1 1_N1"/>
    </vehicle>
    <vehicle id="0.86" depart="172.00">
        <route edges="7_8 8_5"/>
    </vehicle>
    <vehicle id="0.87" depart="174.00">
        <route edges="N2_2 2_N2"/>
    </vehicle>
    <vehicle id="0.88" depart="176.00">
        <route edges="2_5 5_4"/>
    </vehicle>
    <vehicle id="0.89" depart="178.00">
        <route edges="6_5 5_6"/>
    </vehicle>
    <vehicle id="0.90" depart="180.00">
        <route edges="E3_9 9_6 6_3 3_2 2_N2"/>
    </vehicle>
    <vehicle id="0.91" depart="182.00">
        <route edges="W3_7 7_4 4_1 1_2 2_3 3_E1"/>
    </vehicle>
    <vehicle id="0.92" depart="184.00">
        <route edges="6_5 5_4 4_7"/>
    </vehicle>
    <vehicle id="0.93" depart="186.00">
        <route edges="S2_8 8_7 7_S1"/>
    </vehicle>
    <vehicle id="0.94" depart="188.00">
        <route edges="4_5 5_4"/>
    </vehicle>
    <vehicle id="0.95" depart="190.00">
        <route edges="6_5 5_8 8_S2"/>
    </vehicle>
    <vehicle id="0.96" depart="192.00">
        <route edges="5_2 2_3 3_E1"/>
    </vehicle>
    <vehicle id="0.97" depart="194.00">
        <route edges="6_9 9_8 8_S2"/>
    </vehicle>
    <vehicle id="0.98" depart="196.00">
        <route edges="8_7 7_4 4_1 1_2 2_5 5_6 6_3 3_N3"/>
    </vehicle>
    <vehicle id="0.99" depart="198.00">
        <route edges="W3_7 7_8 8_9"/>
    </vehicle>
    <vehicle id="0.100" depart="200.00">
        <route edges="W3_7 7_4 4_W2"/>
    </vehicle>
    <vehicle id="0.101" depart="202.00">
        <route edges="S1_7 7_8 8_5 5_4 4_W2"/>
    </vehicle>
    <vehicle id="0.102" depart="204.00">
        <route edges="7_8 8_S2"/>
    </vehicle>
    <vehicle id="0.103" depart="206.00">
        <route edges="6_5 5_8 8_S2"/>
    </vehicle>
    <vehicle id="0.104" depart="208.00">
        <route edges="6_3 3_2 2_5 5_6 6_9 9_8 8_7 7_W3"/>
    </vehicle>
    <vehicle id="0.105" depart="210.00">
        <route edges="5_2 2_3 3_E1"/>
    </vehicle>
    <vehicle id="0.106" depart="212.00">
        <route edges="7_4 4_1 1_W1"/>
    </vehicle>
    <vehicle id="0.107" depart="214.00">
        <route edges="W2_4 4_5 5_6 6_9 9_E3"/>
    </vehicle>
    <vehicle id="0.108" depart="216.00">
        <route edges="8_7 7_W3"/>
    </vehicle>
    <vehicle id="0.109" depart="218.00">
        <route edges="3_6 6_E2"/>
    </vehicle>
    <vehicle id="0.110" depart="220.00">
        <route edges="W3_7 7_8 8_9 9_E3"/>
    </vehicle>
    <vehicle id="0.111" depart="222.00">
        <route edges="8_7 7_W3"/>
    </vehicle>
    <vehicle id="0.112" depart="224.00">
        <route edges="2_1 1_W1"/>
    </vehicle>
    <vehicle id="0.113" depart="226.00">
        <route edges="7_8 8_9"/>
    </vehicle>
    <vehicle id="0.114" depart="228.00">
        <route edges="3_6 6_E2"/>
    </vehicle>
    <vehicle id="0.115" depart="230.00">
        <route edges="2_3 3_E1"/>
    </vehicle>
    <vehicle id="0.116" depart="232.00">
        <route edges="8_9 9_E3"/>
    </vehicle>
    <vehicle id="0.117" depart="234.00">
        <route edges="4_7 7_8 8_9 9_S3"/>
    </vehicle>
    <vehicle id="0.118" depart="236.00">
        <route edges="S3_9 9_8 8_5 5_2 2_N2"/>
    </vehicle>
    <vehicle id="0.119" depart="238.00">
        <route edges="8_9 9_E3"/>
    </vehicle>
    <vehicle id="0.120" depart="240.00">
        <route edges="6_5 5_2 2_N2"/>
    </vehicle>
    <vehicle id="0.121" depart="242.00">
        <route edges="8_5 5_6 6_3 3_2 2_1 1_4 4_5 5_8 8_S2"/>
    </vehicle>
    <vehicle id="0.122" depart="244.00">
        <route edges="4_5 5_8 8_S2"/>
    </vehicle>
    <vehicle id="0.123" depart="246.00">
        <route edges="5_2"/>
    </vehicle>
    <vehicle id="0.124" depart="248.00">
        <route edges="E1_3 3_2 2_N2"/>
    </vehicle>
    <vehicle id="0.125" depart="250.00">
        <route edges="5_6 6_E2"/>
    </vehicle>
    <vehicle id="0.126" depart="252.00">
        <route edges="2_3 3_E1"/>
    </vehicle>
    <vehicle id="0.127" depart="254.00">
        <route edges="W3_7 7_4 4_W2"/>
    </vehicle>
    <vehicle id="0.128" depart="256.00">
        <route edges="2_3 3_2"/>
    </vehicle>
    <vehicle id="0.129" depart="258.00">
        <route edges="5_2 2_3 3_E1"/>
    </vehicle>
    <vehicle id="0.130" depart="260.00">
        <route edges="S2_8 8_S2"/>
    </vehicle>
    <vehicle id="0.131" depart="262.00">
        <route edges="5_8 8_7 7_4 4_5 5_2 2_1 1_4 4_7 7_W3"/>
    </vehicle>
    <vehicle id="0.132" depart="264.00">
        <route edges="S1_7 7_S1"/>
    </vehicle>
    <vehicle id="0.133" depart="266.00">
        <route edges="9_6 6_5 5_8 8_S2"/>
    </vehicle>
    <vehicle id="0.134" depart="268.00">
        <route edges="9_8 8_5 5_6 6_9 9_E3"/>
    </vehicle>
    <vehicle id="0.135" depart="270.00">
        <route edges="N3_3 3_2 2_5 5_8 8_9 9_E3"/>
    </vehicle>
    <vehicle id="0.136" depart="272.00">
        <route edges="9_8"/>
    </vehicle>
    <vehicle id="0.137" depart="274.00">
        <route edges="3_2 2_3"/>
    </vehicle>
    <vehicle id="0.138" depart="276.00">
        <route edges="2_5 5_4 4_1 1_W1"/>
    </vehicle>
    <vehicle id="0.139" depart="278.00">
        <route edges="5_4 4_W2"/>
    </vehicle>
    <vehicle id="0.140" depart="280.00">
        <route edges="E2_6 6_9 9_E3"/>
    </vehicle>
    <vehicle id="0.141" depart="282.00">
        <route edges="9_8 8_S2"/>
    </vehicle>
    <vehicle id="0.142" depart="284.00">
        <route edges="7_8 8_9 9_E3"/>
    </vehicle>
    <vehicle id="0.143" depart="286.00">
        <route edges="S1_7 7_8 8_5 5_4 4_W2"/>
    </vehicle>
    <vehicle id="0.144" depart="288.00">
        <route edges="6_5 5_8 8_9 9_S3"/>
    </vehicle>
    <vehicle id="0.145" depart="290.00">
        <route edges="1_2 2_3 3_E1"/>
    </vehicle>
    <vehicle id="0.146" depart="292.00">
        <route edges="9_8 8_5 5_2 2_N2"/>
    </vehicle>
    <vehicle id="0.147" depart="294.00">
        <route edges="E3_9 9_8 8_5 5_2 2_1 1_W1"/>
    </vehicle>
    <vehicle id="0.148" depart="296.00">
        <route edges="6_5 5_8 8_S2"/>
    </vehicle>
    <vehicle id="0.149" depart="298.00">
        <route edges="2_3 3_E1"/>
    </vehicle>
    <vehicle id="0.150" depart="300.00">
        <route edges="S3_9 9_8 8_7 7_4 4_W2"/>
    </vehicle>
    <vehicle id="0.151" depart="302.00">
        <route edges="S1_7 7_8 8_9 9_E3"/>
    </vehicle>
    <vehicle id="0.152" depart="304.00">
        <route edges="3_6 6_9 9_8 8_7 7_4 4_5 5_6 6_E2"/>
    </vehicle>
    <vehicle id="0.153" depart="306.00">
        <route edges="5_6 6_3 3_2 2_1 1_W1"/>
    </vehicle>
    <vehicle id="0.154" depart="308.00">
        <route edges="N2_2 2_5 5_4 4_7 7_8 8_5 5_2 2_N2"/>
    </vehicle>
    <vehicle id="0.155" depart="310.00">
        <route edges="S3_9 9_6 6_E2"/>
    </vehicle>
    <vehicle id="0.156" depart="312.00">
        <route edges="5_2 2_1"/>
    </vehicle>
    <vehicle id="0.157" depart="314.00">
        <route edges="N2_2 2_1 1_4 4_5 5_8 8_S2"/>
    </vehicle>
    <vehicle id="0.158" depart="316.00">
        <route edges="6_5 5_8 8_9 9_E3"/>
    </vehicle>
    <vehicle id="0.159" depart="318.00">
        <route edges="3_6 6_9 9_E3"/>
    </vehicle>
    <vehicle id="0.160" depart="320.00">
        <route edges="S2_8 8_9 9_E3"/>
    </vehicle>
    <vehicle id="0.161" depart="322.00">
        <route edges="N2_2 2_3 3_E1"/>
    </vehicle>
    <vehicle id="0.162" depart="324.00">
        <route edges="1_4 4_7 7_W3"/>
    </vehicle>
    <vehicle id="0.163" depart="326.00">
        <route edges="5_6 6_3 3_2 2_1 1_W1"/>
    </vehicle>
    <vehicle id="0.164" depart="328.00">
        <route edges="N2_2 2_3 3_N3"/>
    </vehicle>
    <vehicle id="0.165" depart="330.00">
        <route edges="N2_2 2_1 1_4 4_7 7_8 8_5 5_4 4_1 1_W1"/>
    </vehicle>
    <vehicle id="0.166" depart="332.00">
        <route edges="N2_2 2_3"/>
    </vehicle>
    <vehicle id="0.167" depart="334.00">
        <route edges="S2_8 8_S2"/>
    </vehicle>
    <vehicle id="0.168" depart="336.00">
        <route edges="4_7 7_8 8_9 9_E3"/>
    </vehicle>
    <vehicle id="0.169" depart="338.00">
        <route edges="7_4 4_5"/>
    </vehicle>
    <vehicle id="0.170" depart="340.00">
        <route edges="N2_2 2_5 5_8 8_9 9_E3"/>
    </vehicle>
    <vehicle id="0.171" depart="342.00">
        <route edges="1_4 4_7 7_8 8_5 5_6 6_9 9_8 8_S2"/>
    </vehicle>
    <vehicle id="0.172" depart="344.00">
        <route edges="5_6 6_E2"/>
    </vehicle>
    <vehicle id="0.173" depart="346.00">
        <route edges="W3_7 7_4 4_1"/>
    </vehicle>
    <vehicle id="0.174" depart="348.00">
        <route edges="9_8 8_7 7_S1"/>
    </vehicle>
    <vehicle id="0.175" depart="350.00">
        <route edges="W3_7 7_4 4_W2"/>
    </vehicle>
    <vehicle id="0.176" depart="352.00">
        <route edges="W2_4 4_1 1_N1"/>
    </vehicle>
    <vehicle id="0.177" depart="354.00">
        <route edges="W3_7 7_8 8_9 9_6 6_E2"/>
    </vehicle>
    <vehicle id="0.178" depart="356.00">
        <route edges="W2_4 4_7 7_8 8_5 5_6 6_E2"/>
    </vehicle>
    <vehicle id="0.179" depart="358.00">
        <route edges="2_5 5_4"/>
    </vehicle>
    <vehicle id="0.180" depart="360.00">
        <route edges="E3_9 9_8 8_S2"/>
    </vehicle>
    <vehicle id="0.181" depart="362.00">
        <route edges="8_9 9_E3"/>
    </vehicle>
    <vehicle id="0.182" depart="364.00">
        <route edges="6_3 3_N3"/>
    </vehicle>
    <vehicle id="0.183" depart="366.00">
        <route edges="5_2 2_1 1_W1"/>
    </vehicle>
    <vehicle id="0.184" depart="368.00">
        <route edges="1_2 2_N2"/>
    </vehicle>
    <vehicle id="0.185" depart="370.00">
        <route edges="8_5 5_6 6_E2"/>
    </vehicle>
    <vehicle id="0.186" depart="372.00">
        <route edges="E3_9 9_8 8_5 5_6 6_3 3_E1"/>
    </vehicle>
    <vehicle id="0.187" depart="374.00">
        <route edges="5_8 8_7 7_W3"/>
    </vehicle>
    <vehicle id="0.188" depart="376.00">
        <route edges="9_8 8_5 5_6 6_9 9_E3"/>
    </vehicle>
    <vehicle id="0.189" depart="378.00">
        <route edges="5_6 6_3 3_2 2_5 5_8 8_S2"/>
    </vehicle>
    <vehicle id="0.190" depart="380.00">
        <route edges="E2_6 6_3 3_2 2_1 1_4 4_W2"/>
    </vehicle>
    <vehicle id="0.191" depart="382.00">
        <route edges="5_6 6_E2"/>
    </vehicle>
    <vehicle id="0.192" depart="384.00">
        <route edges="6_5 5_8 8_S2"/>
    </vehicle>
    <vehicle id="0.193" depart="386.00">
        <route edges="3_2 2_5 5_6 6_3 3_N3"/>
    </vehicle>
    <vehicle id="0.194" depart="388.00">
        <route edges="W2_4 4_7 7_8"/>
    </vehicle>
    <vehicle id="0.195" depart="390.00">
        <route edges="S3_9 9_6 6_5 5_2 2_N2"/>
    </vehicle>
    <vehicle id="0.196" depart="392.00">
        <route edges="5_4 4_7 7_S1"/>
    </vehicle>
    <vehicle id="0.197" depart="394.00">
        <route edges="1_2 2_5 5_4 4_7 7_8 8_5 5_2 2_N2"/>
    </vehicle>
    <vehicle id="0.198" depart="396.00">
        <route edges="6_5"/>
    </vehicle>
    <vehicle id="0.199" depart="398.00">
        <route edges="9_8 8_S2"/>
    </vehicle>
    <vehicle id="0.200" depart="400.00">
        <route edges="6_9 9_8 8_5 5_6 6_3 3_E1"/>
    </vehicle>
    <vehicle id="0.201" depart="402.00">
        <route edges="7_8 8_5 5_4 4_W2"/>
    </vehicle>
    <vehicle id="0.202" depart="404.00">
        <route edges="N2_2 2_N2"/>
    </vehicle>
    <vehicle id="0.203" depart="406.00">
        <route edges="2_5 5_8"/>
    </vehicle>
    <vehicle id="0.204" depart="408.00">
        <route edges="9_8 8_5 5_4 4_7"/>
    </vehicle>
    <vehicle id="0.205" depart="410.00">
        <route edges="N3_3 3_6 6_5 5_4 4_7 7_S1"/>
    </vehicle>
    <vehicle id="0.206" depart="412.00">
        <route edges="E1_3 3_6"/>
    </vehicle>
    <vehicle id="0.207" depart="414.00">
        <route edges="4_5 5_8 8_7 7_S1"/>
    </vehicle>
    <vehicle id="0.208" depart="416.00">
        <route edges="5_2 2_3 3_6 6_5 5_4 4_7 7_S1"/>
    </vehicle>
    <vehicle id="0.209" depart="418.00">
        <route edges="S1_7 7_4 4_W2"/>
    </vehicle>
    <vehicle id="0.210" depart="420.00">
        <route edges="6_5 5_2 2_N2"/>
    </vehicle>
    <vehicle id="0.211" depart="422.00">
        <route edges="4_5 5_6 6_E2"/>
    </vehicle>
    <vehicle id="0.212" depart="424.00">
        <route edges="7_8 8_S2"/>
    </vehicle>
    <vehicle id="0.213" depart="426.00">
        <route edges="9_8 8_7 7_W3"/>
    </vehicle>
    <vehicle id="0.214" depart="428.00">
        <route edges="E3_9 9_8 8_5"/>
    </vehicle>
    <vehicle id="0.215" depart="430.00">
        <route edges="2_5 5_4"/>
    </vehicle>
    <vehicle id="0.216" depart="432.00">
        <route edges="4_1 1_2 2_5 5_6 6_3 3_N3"/>
    </vehicle>
    <vehicle id="0.217" depart="434.00">
        <route edges="8_5 5_6 6_9 9_8 8_S2"/>
    </vehicle>
    <vehicle id="0.218" depart="436.00">
        <route edges="5_2 2_3 3_6 6_E2"/>
    </vehicle>
    <vehicle id="0.219" depart="438.00">
        <route edges="7_4 4_5 5_8 8_S2"/>
    </vehicle>
    <vehicle id="0.220" depart="440.00">
        <route edges="E1_3 3_2 2_1 1_4 4_W2"/>
    </vehicle>
    <vehicle id="0.221" depart="442.00">
        <route edges="8_9 9_E3"/>
    </vehicle>
    <vehicle id="0.222" depart="444.00">
        <route edges="S3_9 9_6 6_3 3_2 2_N2"/>
    </vehicle>
    <vehicle id="0.223" depart="446.00">
        <route edges="E2_6 6_9 9_E3"/>
    </vehicle>
    <vehicle id="0.224" depart="448.00">
        <route edges="N3_3 3_6 6_E2"/>
    </vehicle>
    <vehicle id="0.225" depart="450.00">
        <route edges="S3_9 9_8 8_S2"/>
    </vehicle>
    <vehicle id="0.226" depart="452.00">
        <route edges="7_8 8_S2"/>
    </vehicle>
    <vehicle id="0.227" depart="454.00">
        <route edges="5_2 2_3 3_6 6_E2"/>
    </vehicle>
    <vehicle id="0.228" depart="456.00">
        <route edges="N1_1 1_2 2_N2"/>
    </vehicle>
    <vehicle id="0.229" depart="458.00">
        <route edges="9_6 6_3 3_N3"/>
    </vehicle>
    <vehicle id="0.230" depart="460.00">
        <route edges="2_3 3_6 6_5 5_2 2_N2"/>
    </vehicle>
    <vehicle id="0.231" depart="462.00">
        <route edges="5_4 4_5"/>
    </vehicle>
    <vehicle id="0.232" depart="464.00">
        <route edges="8_5 5_2 2_1 1_N1"/>
    </vehicle>
    <vehicle id="0.233" depart="466.00">
        <route edges="4_7 7_8"/>
    </vehicle>
    <vehicle id="0.234" depart="468.00">
        <route edges="E2_6 6_5 5_2 2_N2"/>
    </vehicle>
    <vehicle id="0.235" depart="470.00">
        <route edges="6_5 5_4 4_1 1_2 2_N2"/>
    </vehicle>
    <vehicle id="0.236" depart="472.00">
        <route edges="6_5 5_8 8_S2"/>
    </vehicle>
    <vehicle id="0.237" depart="474.00">
        <route edges="6_5 5_2 2_N2"/>
    </vehicle>
    <vehicle id="0.238" depart="476.00">
        <route edges="8_9 9_6 6_3 3_N3"/>
    </vehicle>
    <vehicle id="0.239" depart="478.00">
        <route edges="S2_8 8_5"/>
    </vehicle>
    <vehicle id="0.240" depart="480.00">
        <route edges="6_3 3_2 2_5 5_8 8_S2"/>
    </vehicle>
    <vehicle id="0.241" depart="482.00">
        <route edges="5_8 8_5"/>
    </vehicle>
    <vehicle id="0.242" depart="484.00">
        <route edges="S1_7 7_8 8_5 5_4 4_W2"/>
    </vehicle>
    <vehicle id="0.243" depart="486.00">
        <route edges="6_5 5_8 8_7 7_W3"/>
    </vehicle>
    <vehicle id="0.244" depart="488.00">
        <route edges="8_7 7_S1"/>
    </vehicle>
    <vehicle id="0.245" depart="490.00">
        <route edges="4_7 7_8 8_S2"/>
    </vehicle>
    <vehicle id="0.246" depart="492.00">
        <route edges="6_9 9_E3"/>
    </vehicle>
    <vehicle id="0.247" depart="494.00">
        <route edges="5_6 6_9 9_E3"/>
    </vehicle>
    <vehicle id="0.248" depart="496.00">
        <route edges="6_5 5_8 8_7 7_W3"/>
    </vehicle>
    <vehicle id="0.249" depart="498.00">
        <route edges="7_4 4_5 5_2 2_N2"/>
    </vehicle>
    <vehicle id="0.250" depart="500.00">
        <route edges="9_6 6_5 5_4 4_1 1_N1"/>
    </vehicle>
    <vehicle id="0.251" depart="502.00">
        <route edges="6_3 3_N3"/>
    </vehicle>
    <vehicle id="0.252" depart="504.00">
        <route edges="1_4 4_5 5_2 2_N2"/>
    </vehicle>
    <vehicle id="0.253" depart="506.00">
        <route edges="3_2 2_5 5_6"/>
    </vehicle>
    <vehicle id="0.254" depart="508.00">
        <route edges="2_1 1_W1"/>
    </vehicle>
    <vehicle id="0.255" depart="510.00">
        <route edges="4_5"/>
    </vehicle>
    <vehicle id="0.256" depart="512.00">
        <route edges="N1_1 1_2 2_3 3_6 6_5 5_4 4_1 1_W1"/>
    </vehicle>
    <vehicle id="0.257" depart="514.00">
        <route edges="E3_9 9_8 8_7 7_W3"/>
    </vehicle>
    <vehicle id="0.258" depart="516.00">
        <route edges="5_2 2_1 1_W1"/>
    </vehicle>
    <vehicle id="0.259" depart="518.00">
        <route edges="1_2 2_N2"/>
    </vehicle>
    <vehicle id="0.260" depart="520.00">
        <route edges="W3_7 7_8 8_9 9_S3"/>
    </vehicle>
    <vehicle id="0.261" depart="522.00">
        <route edges="9_8 8_5"/>
    </vehicle>
    <vehicle id="0.262" depart="524.00">
        <route edges="9_8 8_5"/>
    </vehicle>
    <vehicle id="0.263" depart="526.00">
        <route edges="W2_4 4_7 7_8 8_S2"/>
    </vehicle>
    <vehicle id="0.264" depart="528.00">
        <route edges="1_2 2_5"/>
    </vehicle>
    <vehicle id="0.265" depart="530.00">
        <route edges="3_2 2_5 5_8 8_9 9_6 6_E2"/>
    </vehicle>
    <vehicle id="0.266" depart="532.00">
        <route edges="8_7 7_4 4_5 5_6 6_3 3_2 2_N2"/>
    </vehicle>
    <vehicle id="0.267" depart="534.00">
        <route edges="E2_6 6_3 3_2 2_5 5_6 6_9 9_E3"/>
    </vehicle>
    <vehicle id="0.268" depart="536.00">
        <route edges="4_1 1_W1"/>
    </vehicle>
    <vehicle id="0.269" depart="538.00">
        <route edges="E3_9 9_8 8_7 7_S1"/>
    </vehicle>
    <vehicle id="0.270" depart="540.00">
        <route edges="N3_3 3_2 2_1 1_4 4_7 7_8 8_9 9_E3"/>
    </vehicle>
    <vehicle id="0.271" depart="542.00">
        <route edges="2_5 5_6 6_9 9_8 8_S2"/>
    </vehicle>
    <vehicle id="0.272" depart="544.00">
        <route edges="5_6 6_3 3_2 2_N2"/>
    </vehicle>
    <vehicle id="0.273" depart="546.00">
        <route edges="W2_4 4_5 5_6 6_9 9_8 8_5 5_4 4_7 7_W3"/>
    </vehicle>
    <vehicle id="0.274" depart="548.00">
        <route edges="E2_6 6_3 3_2 2_5 5_8 8_9 9_E3"/>
    </vehicle>
    <vehicle id="0.275" depart="550.00">
        <route edges="E2_6 6_E2"/>
    </vehicle>
    <vehicle id="0.276" depart="552.00">
        <route edges="2_5 5_8 8_7 7_S1"/>
    </vehicle>
    <vehicle id="0.277" depart="554.00">
        <route edges="S1_7 7_8 8_5 5_4 4_W2"/>
    </vehicle>
    <vehicle id="0.278" depart="556.00">
        <route edges="3_2 2_1 1_4 4_W2"/>
    </vehicle>
    <vehicle id="0.279" depart="558.00">
        <route edges="N2_2 2_5 5_6 6_9 9_8 8_5 5_2 2_3 3_6 6_E2"/>
    </vehicle>
    <vehicle id="0.280" depart="560.00">
        <route edges="6_5 5_2 2_N2"/>
    </vehicle>
    <vehicle id="0.281" depart="562.00">
        <route edges="7_8 8_S2"/>
    </vehicle>
    <vehicle id="0.282" depart="564.00">
        <route edges="S1_7 7_4 4_5 5_6 6_9 9_8 8_5 5_2 2_1 1_4 4_W2"/>
    </vehicle>
    <vehicle id="0.283" depart="566.00">
        <route edges="2_5 5_8 8_S2"/>
    </vehicle>
    <vehicle id="0.284" depart="568.00">
        <route edges="9_8 8_9"/>
    </vehicle>
    <vehicle id="0.285" depart="570.00">
        <route edges="E2_6 6_3 3_N3"/>
    </vehicle>
    <vehicle id="0.286" depart="572.00">
        <route edges="E3_9 9_E3"/>
    </vehicle>
    <vehicle id="0.287" depart="574.00">
        <route edges="5_2 2_N2"/>
    </vehicle>
    <vehicle id="0.288" depart="576.00">
        <route edges="8_5 5_6"/>
    </vehicle>
    <vehicle id="0.289" depart="578.00">
        <route edges="6_9 9_E3"/>
    </vehicle>
    <vehicle id="0.290" depart="580.00">
        <route edges="5_2 2_3 3_E1"/>
    </vehicle>
    <vehicle id="0.291" depart="582.00">
        <route edges="N3_3 3_2 2_5 5_4 4_W2"/>
    </vehicle>
    <vehicle id="0.292" depart="584.00">
        <route edges="S2_8 8_5 5_6 6_3 3_2 2_N2"/>
    </vehicle>
    <vehicle id="0.293" depart="586.00">
        <route edges="7_4 4_W2"/>
    </vehicle>
    <vehicle id="0.294" depart="588.00">
        <route edges="6_3 3_N3"/>
    </vehicle>
    <vehicle id="0.295" depart="590.00">
        <route edges="S1_7 7_4 4_W2"/>
    </vehicle>
    <vehicle id="0.296" depart="592.00">
        <route edges="4_5 5_6 6_9 9_E3"/>
    </vehicle>
    <vehicle id="0.297" depart="594.00">
        <route edges="5_8 8_S2"/>
    </vehicle>
    <vehicle id="0.298" depart="596.00">
        <route edges="E2_6 6_3 3_N3"/>
    </vehicle>
    <vehicle id="0.299" depart="598.00">
        <route edges="1_2 2_N2"/>
    </vehicle>
    <vehicle id="0.300" depart="600.00">
        <route edges="2_5 5_4 4_W2"/>
    </vehicle>
    <vehicle id="0.301" depart="602.00">