<?xml version="1.0" encoding="UTF-8"?>

<!-- generated on 2023-10-10 18:53:55 by Eclipse SUMO duarouter Version 1.10.0
<configuration xmlns:xsi="http://www.w3.org/2001/XMLSchema-instance" xsi:noNamespaceSchemaLocation="http://sumo.dlr.de/xsd/duarouterConfiguration.xsd">

    <input>
        <net-file value="3_3tlsp.net.xml"/>
        <route-files value="0917_6.trips.xml,0917_7.trips.xml,0917_75.trips.xml,0917_8.trips.xml,0917_9.trips.xml"/>
    </input>

    <output>
        <output-file value="0917_6_9.rou.xml"/>
        <alternatives-output value="0917_6_9.rou.alt.xml"/>
    </output>

</configuration>
-->

<routes xmlns:xsi="http://www.w3.org/2001/XMLSchema-instance" xsi:noNamespaceSchemaLocation="http://sumo.dlr.de/xsd/routes_file.xsd">
    <vehicle id="0.0" depart="0.00">
        <route edges="9_8 8_7 7_4 4_1 1_2"/>
    </vehicle>
    <vehicle id="0.1" depart="2.76">
        <route edges="4_7 7_4 4_5 5_2 2_3 3_2"/>
    </vehicle>
    <vehicle id="0.2" depart="5.52">
        <route edges="E3_9 9_8 8_7 7_4"/>
    </vehicle>
    <vehicle id="0.3" depart="8.28">
        <route edges="S3_9 9_8 8_7 7_4 4_1 1_W1"/>
    </vehicle>
    <vehicle id="0.4" depart="11.04">
        <route edges="6_5 5_4 4_1 1_4"/>
    </vehicle>
    <vehicle id="0.5" depart="13.80">
        <route edges="4_1 1_4 4_5 5_6"/>
    </vehicle>
    <vehicle id="0.6" depart="16.56">
        <route edges="1_2 2_N2"/>
    </vehicle>
    <vehicle id="0.7" depart="19.32">
        <route edges="9_8 8_5 5_8"/>
    </vehicle>
    <vehicle id="0.8" depart="22.08">
        <route edges="4_1 1_2 2_3 3_6 6_5"/>
    </vehicle>
    <vehicle id="0.9" depart="24.84">
        <route edges="N3_3 3_2 2_1 1_2"/>
    </vehicle>
    <vehicle id="0.10" depart="27.60">
        <route edges="N3_3 3_2 2_5 5_8 8_7 7_8"/>
    </vehicle>
    <vehicle id="0.11" depart="30.36">
        <route edges="5_6 6_3 3_2 2_3"/>
    </vehicle>
    <vehicle id="0.12" depart="33.12">
        <route edges="W2_4 4_1"/>
    </vehicle>
    <vehicle id="0.13" depart="35.88">
        <route edges="2_3 3_2 2_1 1_W1"/>
    </vehicle>
    <vehicle id="0.14" depart="38.64">
        <route edges="S1_7 7_4 4_5 5_6 6_5"/>
    </vehicle>
    <vehicle id="0.15" depart="41.40">
        <route edges="N3_3 3_2 2_5 5_8 8_7 7_S1"/>
    </vehicle>
    <vehicle id="0.16" depart="44.16">
        <route edges="8_5 5_6 6_9 9_S3"/>
    </vehicle>
    <vehicle id="0.17" depart="46.92">
        <route edges="5_8"/>
    </vehicle>
    <vehicle id="0.18" depart="49.68">
        <route edges="N3_3 3_6 6_9"/>
    </vehicle>
    <vehicle id="0.19" depart="52.44">
        <route edges="S2_8 8_5 5_6 6_3"/>
    </vehicle>
    <vehicle id="0.20" depart="55.20">
        <route edges="E2_6 6_5 5_4 4_1 1_4"/>
    </vehicle>
    <vehicle id="0.21" depart="57.96">
        <route edges="4_5 5_2 2_3 3_E1"/>
    </vehicle>
    <vehicle id="0.22" depart="60.72">
        <route edges="2_1 1_2 2_3 3_2"/>
    </vehicle>
    <vehicle id="0.23" depart="63.48">
        <route edges="2_3 3_E1"/>
    </vehicle>
    <vehicle id="0.24" depart="66.24">
        <route edges="9_6 6_5 5_4 4_5"/>
    </vehicle>
    <vehicle id="0.25" depart="69.00">
        <route edges="5_8 8_5 5_2 2_N2"/>
    </vehicle>
    <vehicle id="0.26" depart="71.76">
        <route edges="4_7 7_8 8_9 9_8"/>
    </vehicle>
    <vehicle id="0.27" depart="74.52">
        <route edges="9_8 8_5 5_6 6_5"/>
    </vehicle>
    <vehicle id="0.28" depart="77.28">
        <route edges="3_6 6_5 5_4 4_7 7_S1"/>
    </vehicle>
    <vehicle id="0.29" depart="80.04">
        <route edges="3_2 2_5 5_4 4_5"/>
    </vehicle>
    <vehicle id="0.30" depart="82.80">
        <route edges="W3_7 7_8 8_5 5_6 6_E2"/>
    </vehicle>
    <vehicle id="0.31" depart="85.56">
        <route edges="8_7 7_4"/>
    </vehicle>
    <vehicle id="0.32" depart="88.32">
        <route edges="S1_7 7_W3"/>
    </vehicle>
    <vehicle id="0.33" depart="91.08">
        <route edges="4_5 5_4 4_1 1_4"/>
    </vehicle>
    <vehicle id="0.34" depart="93.84">
        <route edges="5_4 4_5 5_2 2_3 3_6"/>
    </vehicle>
    <vehicle id="0.35" depart="96.60">
        <route edges="4_1 1_2 2_3 3_6 6_9 9_8"/>
    </vehicle>
    <vehicle id="0.36" depart="99.36">
        <route edges="S2_8 8_5 5_2 2_3 3_N3"/>
    </vehicle>
    <vehicle id="0.37" depart="102.12">
        <route edges="9_8 8_7 7_4 4_7"/>
    </vehicle>
    <vehicle id="0.38" depart="104.88">
        <route edges="S3_9 9_8 8_5 5_2"/>
    </vehicle>
    <vehicle id="0.39" depart="107.64">
        <route edges="4_7 7_4 4_5 5_2 2_3 3_2"/>
    </vehicle>
    <vehicle id="0.40" depart="110.40">
        <route edges="8_7 7_4 4_5 5_2 2_3 3_6"/>
    </vehicle>
    <vehicle id="0.41" depart="113.16">
        <route edges="8_9 9_6"/>
    </vehicle>
    <vehicle id="0.42" depart="115.92">
        <route edges="6_3 3_2 2_N2"/>
    </vehicle>
    <vehicle id="0.43" depart="118.68">
        <route edges="W3_7 7_8 8_5 5_6"/>
    </vehicle>
    <vehicle id="0.44" depart="121.44">
        <route edges="2_3 3_2 2_1 1_4"/>
    </vehicle>
    <vehicle id="0.45" depart="124.20">
        <route edges="2_3 3_6 6_9"/>
    </vehicle>
    <vehicle id="0.46" depart="126.96">
        <route edges="N2_2 2_5 5_4 4_W2"/>
    </vehicle>
    <vehicle id="0.47" depart="129.72">
        <route edges="2_1 1_4 4_5"/>
    </vehicle>
    <vehicle id="0.48" depart="132.48">
        <route edges="W3_7 7_4 4_5 5_8"/>
    </vehicle>
    <vehicle id="0.49" depart="135.24">
        <route edges="W2_4 4_7 7_8 8_9"/>
    </vehicle>
    <vehicle id="0.50" depart="138.00">
        <route edges="1_2 2_5 5_8 8_7 7_8"/>
    </vehicle>
    <vehicle id="0.51" depart="140.76">
        <route edges="E1_3 3_2 2_5 5_8"/>
    </vehicle>
    <vehicle id="0.52" depart="143.52">
        <route edges="4_7 7_4 4_5 5_6 6_E2"/>
    </vehicle>
    <vehicle id="0.53" depart="146.28">
        <route edges="2_5 5_4 4_W2"/>
    </vehicle>
    <vehicle id="0.54" depart="149.04">
        <route edges="6_9 9_E3"/>
    </vehicle>
    <vehicle id="0.55" depart="151.80">
        <route edges="S2_8 8_5 5_2 2_3 3_6"/>
    </vehicle>
    <vehicle id="0.56" depart="154.56">
        <route edges="7_8 8_5 5_2 2_5"/>
    </vehicle>
    <vehicle id="0.57" depart="157.32">
        <route edges="S3_9 9_8 8_S2"/>
    </vehicle>
    <vehicle id="0.58" depart="160.08">
        <route edges="5_2 2_3 3_6 6_E2"/>
    </vehicle>
    <vehicle id="0.59" depart="162.84">
        <route edges="8_9 9_6 6_3 3_2 2_3"/>
    </vehicle>
    <vehicle id="0.60" depart="165.60">
        <route edges="N1_1 1_4 4_5 5_8"/>
    </vehicle>
    <vehicle id="0.61" depart="168.36">
        <route edges="N2_2 2_5 5_8"/>
    </vehicle>
    <vehicle id="0.62" depart="171.12">
        <route edges="1_2 2_3 3_N3"/>
    </vehicle>
    <vehicle id="0.63" depart="173.88">
        <route edges="1_2 2_3 3_6 6_9 9_8"/>
    </vehicle>
    <vehicle id="0.64" depart="176.64">
        <route edges="S2_8 8_7"/>
    </vehicle>
    <vehicle id="0.65" depart="179.40">
        <route edges="5_4 4_1 1_N1"/>
    </vehicle>
    <vehicle id="0.66" depart="182.16">
        <route edges="S2_8 8_9 9_E3"/>
    </vehicle>
    <vehicle id="0.67" depart="184.92">
        <route edges="2_3 3_2 2_5 5_4"/>
    </vehicle>
    <vehicle id="0.68" depart="187.68">
        <route edges="2_1 1_4 4_7 7_W3"/>
    </vehicle>
    <vehicle id="0.69" depart="190.44">
        <route edges="N1_1 1_2 2_1"/>
    </vehicle>
    <vehicle id="0.70" depart="193.20">
        <route edges="7_4 4_5 5_8"/>
    </vehicle>
    <vehicle id="0.71" depart="195.96">
        <route edges="4_7 7_8 8_S2"/>
    </vehicle>
    <vehicle id="0.72" depart="198.72">
        <route edges="6_5 5_2 2_N2"/>
    </vehicle>
    <vehicle id="0.73" depart="201.48">
        <route edges="8_5 5_8 8_7 7_S1"/>
    </vehicle>
    <vehicle id="0.74" depart="204.24">
        <route edges="4_1 1_2 2_3 3_N3"/>
    </vehicle>
    <vehicle id="0.75" depart="207.00">
        <route edges="W3_7 7_8 8_5 5_6 6_E2"/>
    </vehicle>
    <vehicle id="0.76" depart="209.76">
        <route edges="6_5 5_6"/>
    </vehicle>
    <vehicle id="0.77" depart="212.52">
        <route edges="2_5 5_2 2_3 3_2"/>
    </vehicle>
    <vehicle id="0.78" depart="215.28">
        <route edges="5_6 6_5"/>
    </vehicle>
    <vehicle id="0.79" depart="218.04">
        <route edges="4_5 5_2 2_N2"/>
    </vehicle>
    <vehicle id="0.80" depart="220.80">
        <route edges="2_1 1_2 2_3 3_6 6_9"/>
    </vehicle>
    <vehicle id="0.81" depart="223.56">
        <route edges="4_5 5_6 6_9 9_6"/>
    </vehicle>
    <vehicle id="0.82" depart="226.32">
        <route edges="S1_7 7_4 4_1 1_N1"/>
    </vehicle>
    <vehicle id="0.83" depart="229.08">
        <route edges="4_5 5_8 8_7 7_4"/>
    </vehicle>
    <vehicle id="0.84" depart="231.84">
        <route edges="4_1 1_2 2_1"/>
    </vehicle>
    <vehicle id="0.85" depart="234.60">
        <route edges="W1_1 1_2 2_3 3_6 6_3"/>
    </vehicle>
    <vehicle id="0.86" depart="237.36">
        <route edges="7_4 4_5 5_8 8_5"/>
    </vehicle>
    <vehicle id="0.87" depart="240.12">
        <route edges="N3_3 3_2 2_5"/>
    </vehicle>
    <vehicle id="0.88" depart="242.88">
        <route edges="2_3 3_2 2_5 5_4 4_W2"/>
    </vehicle>
    <vehicle id="0.89" depart="245.64">
        <route edges="6_5 5_2"/>
    </vehicle>
    <vehicle id="0.90" depart="248.40">
        <route edges="E3_9 9_8 8_7 7_4"/>
    </vehicle>
    <vehicle id="0.91" depart="251.16">
        <route edges="W3_7 7_4 4_1 1_W1"/>
    </vehicle>
    <vehicle id="0.92" depart="253.92">
        <route edges="6_3 3_2 2_5 5_4 4_1"/>
    </vehicle>
    <vehicle id="0.93" depart="256.68">
        <route edges="S2_8 8_5 5_2 2_3 3_2"/>
    </vehicle>
    <vehicle id="0.94" depart="259.44">
        <route edges="3_6 6_5 5_2"/>
    </vehicle>
    <vehicle id="0.95" depart="262.20">
        <route edges="6_5 5_2 2_3 3_E1"/>
    </vehicle>
    <vehicle id="0.96" depart="264.96">
        <route edges="4_5 5_6 6_9 9_8"/>
    </vehicle>
    <vehicle id="0.97" depart="267.72">
        <route edges="6_5 5_8 8_S2"/>
    </vehicle>
    <vehicle id="0.98" depart="270.48">
        <route edges="8_5 5_4 4_1 1_4"/>
    </vehicle>
    <vehicle id="0.99" depart="273.24">
        <route edges="W3_7 7_8 8_9"/>
    </vehicle>
    <vehicle id="0.100" depart="276.00">
        <route edges="W2_4 4_7 7_8 8_9 9_8"/>
    </vehicle>
    <vehicle id="0.101" depart="278.76">
        <route edges="S1_7 7_8 8_5 5_2 2_3"/>
    </vehicle>
    <vehicle id="0.102" depart="281.52">
        <route edges="7_4 4_5 5_2 2_N2"/>
    </vehicle>
    <vehicle id="0.103" depart="284.28">
        <route edges="6_3 3_2 2_1 1_N1"/>
    </vehicle>
    <vehicle id="0.104" depart="287.04">
        <route edges="5_8 8_9 9_S3"/>
    </vehicle>
    <vehicle id="0.105" depart="289.80">
        <route edges="4_7 7_8 8_5"/>
    </vehicle>
    <vehicle id="0.106" depart="292.56">
        <route edges="6_9 9_8 8_7 7_4 4_W2"/>
    </vehicle>
    <vehicle id="0.107" depart="295.32">
        <route edges="W2_4 4_7 7_8 8_9 9_S3"/>
    </vehicle>
    <vehicle id="0.108" depart="298.08">
        <route edges="8_7 7_8"/>
    </vehicle>
    <vehicle id="0.109" depart="300.84">
        <route edges="3_2 2_3 3_E1"/>
    </vehicle>
    <vehicle id="0.110" depart="303.60">
        <route edges="W2_4 4_5 5_6 6_3"/>
    </vehicle>
    <vehicle id="0.111" depart="306.36">
        <route edges="8_5 5_8 8_7 7_S1"/>
    </vehicle>
    <vehicle id="0.112" depart="309.12">
        <route edges="2_1 1_2 2_3 3_6 6_5"/>
    </vehicle>
    <vehicle id="0.113" depart="311.88">
        <route edges="7_8 8_9"/>
    </vehicle>
    <vehicle id="0.114" depart="314.64">
        <route edges="3_2 2_3 3_6 6_9 9_E3"/>
    </vehicle>
    <vehicle id="0.115" depart="317.40">
        <route edges="2_1 1_2 2_5"/>
    </vehicle>
    <vehicle id="0.116" depart="320.16">
        <route edges="8_9 9_8 8_7 7_4"/>
    </vehicle>
    <vehicle id="0.117" depart="322.92">
        <route edges="4_5 5_2 2_1"/>
    </vehicle>
    <vehicle id="0.118" depart="325.68">
        <route edges="S3_9 9_6 6_3 3_2"/>
    </vehicle>
    <vehicle id="0.119" depart="328.44">
        <route edges="8_9 9_6 6_9"/>
    </vehicle>
    <vehicle id="0.120" depart="331.20">
        <route edges="6_5"/>
    </vehicle>
    <vehicle id="0.121" depart="333.96">
        <route edges="7_8 8_9 9_8"/>
    </vehicle>
    <vehicle id="0.122" depart="336.72">
        <route edges="4_1 1_4 4_7 7_8"/>
    </vehicle>
    <vehicle id="0.123" depart="339.48">
        <route edges="4_5 5_4 4_7"/>
    </vehicle>
    <vehicle id="0.124" depart="342.24">
        <route edges="E1_3 3_E1"/>
    </vehicle>
    <vehicle id="0.125" depart="345.00">
        <route edges="5_4 4_7 7_W3"/>
    </vehicle>
    <vehicle id="0.126" depart="347.76">
        <route edges="2_1 1_4 4_5 5_2"/>
    </vehicle>
    <vehicle id="0.127" depart="350.52">
        <route edges="W3_7 7_8 8_9 9_S3"/>
    </vehicle>
    <vehicle id="0.128" depart="353.28">
        <route edges="2_1 1_2 2_N2"/>
    </vehicle>
    <vehicle id="0.129" depart="356.04">
        <route edges="4_7 7_8 8_9 9_8"/>
    </vehicle>
    <vehicle id="0.130" depart="358.80">
        <route edges="S2_8 8_S2"/>
    </vehicle>
    <vehicle id="0.131" depart="361.56">
        <route edges="5_8 8_5 5_2 2_3"/>
    </vehicle>
    <vehicle id="0.132" depart="364.32">
        <route edges="S1_7 7_8"/>
    </vehicle>
    <vehicle id="0.133" depart="367.08">
        <route edges="9_6 6_9 9_S3"/>
    </vehicle>
    <vehicle id="0.134" depart="369.84">
        <route edges="9_8 8_7 7_4 4_1 1_2"/>
    </vehicle>
    <vehicle id="0.135" depart="372.60">
        <route edges="N3_3 3_E1"/>
    </vehicle>
    <vehicle id="0.136" depart="375.36">
        <route edges="9_8"/>
    </vehicle>
    <vehicle id="0.137" depart="378.12">
        <route edges="2_5 5_2 2_1"/>
    </vehicle>
    <vehicle id="0.138" depart="380.88">
        <route edges="2_3 3_2 2_5 5_8"/>
    </vehicle>
    <vehicle id="0.139" depart="383.64">
        <route edges="4_7 7_4 4_5 5_6 6_5"/>
    </vehicle>
    <vehicle id="0.140" depart="386.40">
        <route edges="E2_6 6_3 3_2 2_N2"/>
    </vehicle>
    <vehicle id="0.141" depart="389.16">
        <route edges="9_6 6_3 3_6"/>
    </vehicle>
    <vehicle id="0.142" depart="391.92">
        <route edges="7_4 4_5 5_6 6_9 9_6"/>
    </vehicle>
    <vehicle id="0.143" depart="394.68">
        <route edges="S1_7 7_4 4_1 1_W1"/>
    </vehicle>
    <vehicle id="0.144" depart="397.44">
        <route edges="6_5 5_2 2_3 3_6"/>
    </vehicle>
    <vehicle id="0.145" depart="400.20">
        <route edges="1_2 2_5 5_8 8_7 7_W3"/>
    </vehicle>
    <vehicle id="0.146" depart="402.96">
        <route edges="9_6 6_3 3_6"/>
    </vehicle>
    <vehicle id="0.147" depart="405.72">
        <route edges="E3_9 9_8 8_5 5_8"/>
    </vehicle>
    <vehicle id="0.148" depart="408.48">
        <route edges="6_5 5_4 4_1 1_2"/>
    </vehicle>
    <vehicle id="0.149" depart="411.24">
        <route edges="2_1 1_4 4_7 7_8 8_S2"/>
    </vehicle>
    <vehicle id="0.150" depart="414.00">
        <route edges="S3_9 9_8 8_5 5_8"/>
    </vehicle>
    <vehicle id="0.151" depart="416.76">
        <route edges="S1_7 7_4 4_5 5_6 6_3"/>
    </vehicle>
    <vehicle id="0.152" depart="419.52">
        <route edges="3_2 2_1"/>
    </vehicle>
    <vehicle id="0.153" depart="422.28">
        <route edges="5_4 4_5 5_6 6_9 9_6"/>
    </vehicle>
    <vehicle id="0.154" depart="425.04">
        <route edges="N2_2 2_5 5_8 8_9"/>
    </vehicle>
    <vehicle id="0.155" depart="427.80">
        <route edges="S3_9 9_6 6_3 3_2 2_N2"/>
    </vehicle>
    <vehicle id="0.156" depart="430.56">
        <route edges="4_5 5_4 4_1 1_W1"/>
    </vehicle>
    <vehicle id="0.157" depart="433.32">
        <route edges="N2_2 2_5 5_8 8_S2"/>
    </vehicle>
    <vehicle id="0.158" depart="436.08">
        <route edges="6_3 3_6 6_9"/>
    </vehicle>
    <vehicle id="0.159" depart="438.84">
        <route edges="3_2 2_3 3_6 6_9 9_8"/>
    </vehicle>
    <vehicle id="0.160" depart="441.60">
        <route edges="S2_8 8_9 9_S3"/>
    </vehicle>
    <vehicle id="0.161" depart="444.36">
        <route edges="N3_3 3_2 2_5 5_8 8_S2"/>
    </vehicle>
    <vehicle id="0.162" depart="447.12">
        <route edges="1_2 2_5 5_8 8_7 7_S1"/>
    </vehicle>
    <vehicle id="0.163" depart="449.88">
        <route edges="5_4 4_5 5_6 6_9 9_8"/>
    </vehicle>
    <vehicle id="0.164" depart="452.64">
        <route edges="N2_2 2_5 5_8 8_S2"/>
    </vehicle>
    <vehicle id="0.165" depart="455.40">
        <route edges="N3_3 3_6"/>
    </vehicle>
    <vehicle id="0.166" depart="458.16">
        <route edges="N2_2 2_1 1_W1"/>
    </vehicle>
    <vehicle id="0.167" depart="460.92">
        <route edges="S2_8 8_9"/>
    </vehicle>
    <vehicle id="0.168" depart="463.68">
        <route edges="4_5 5_8 8_7"/>
    </vehicle>
    <vehicle id="0.169" depart="466.44">
        <route edges="6_9 9_6 6_3 3_E1"/>
    </vehicle>
    <vehicle id="0.170" depart="469.20">
        <route edges="N2_2 2_3 3_2"/>
    </vehicle>
    <vehicle id="0.171" depart="471.96">
        <route edges="1_2 2_5"/>
    </vehicle>
    <vehicle id="0.172" depart="474.72">
        <route edges="5_4 4_5 5_8 8_S2"/>
    </vehicle>
    <vehicle id="0.173" depart="477.48">
        <route edges="W2_4 4_5 5_2 2_3 3_E1"/>
    </vehicle>
    <vehicle id="0.174" depart="480.24">
        <route edges="9_8 8_7 7_4 4_7"/>
    </vehicle>
    <vehicle id="0.175" depart="483.00">
        <route edges="W3_7 7_4 4_5 5_8"/>
    </vehicle>
    <vehicle id="0.176" depart="485.76">
        <route edges="W1_1 1_2 2_1"/>
    </vehicle>
    <vehicle id="0.177" depart="488.52">
        <route edges="W2_4 4_5 5_2 2_5"/>
    </vehicle>
    <vehicle id="0.178" depart="491.28">
        <route edges="W2_4 4_5 5_2 2_3 3_6"/>
    </vehicle>
    <vehicle id="0.179" depart="494.04">
        <route edges="2_3 3_2 2_5 5_4 4_W2"/>
    </vehicle>
    <vehicle id="0.180" depart="496.80">
        <route edges="E3_9 9_6 6_3 3_N3"/>
    </vehicle>
    <vehicle id="0.181" depart="499.56">
        <route edges="8_9 9_8 8_5 5_6"/>
    </vehicle>
    <vehicle id="0.182" depart="502.32">
        <route edges="5_8 8_5 5_6 6_3"/>
    </vehicle>
    <vehicle id="0.183" depart="505.08">
        <route edges="4_7 7_8"/>
    </vehicle>
    <vehicle id="0.184" depart="507.84">
        <route edges="1_2 2_3 3_6 6_9 9_8"/>
    </vehicle>
    <vehicle id="0.185" depart="510.60">
        <route edges="8_5 5_8 8_7 7_8"/>
    </vehicle>
    <vehicle id="0.186" depart="513.36">
        <route edges="E3_9 9_8 8_7 7_4"/>
    </vehicle>
    <vehicle id="0.187" depart="516.12">
        <route edges="5_8 8_7 7_4 4_1 1_N1"/>
    </vehicle>
    <vehicle id="0.188" depart="518.88">
        <route edges="9_8 8_5 5_2 2_3 3_N3"/>
    </vehicle>
    <vehicle id="0.189" depart="521.64">
        <route edges="5_4 4_7 7_8 8_9"/>
    </vehicle>
    <vehicle id="0.190" depart="524.40">
        <route edges="E2_6 6_3 3_E1"/>
    </vehicle>
    <vehicle id="0.191" depart="527.16">
        <route edges="5_4 4_7"/>
    </vehicle>
    <vehicle id="0.192" depart="529.92">
        <route edges="6_3 3_E1"/>
    </vehicle>
    <vehicle id="0.193" depart="532.68">
        <route edges="2_5 5_4 4_W2"/>
    </vehicle>
    <vehicle id="0.194" depart="535.44">
        <route edges="W1_1 1_4 4_7 7_4"/>
    </vehicle>
    <vehicle id="0.195" depart="538.20">
        <route edges="S3_9 9_6 6_9"/>
    </vehicle>
    <vehicle id="0.196" depart="540.96">
        <route edges="5_2 2_5 5_8"/>
    </vehicle>
    <vehicle id="0.197" depart="543.72">
        <route edges="1_2 2_3 3_E1"/>
    </vehicle>
    <vehicle id="0.198" depart="546.48">
        <route edges="6_5 5_6 6_3"/>
    </vehicle>
    <vehicle id="0.199" depart="549.24">
        <route edges="9_8 8_5 5_2"/>
    </vehicle>
    <vehicle id="0.200" depart="552.00">
        <route edges="6_5 5_2 2_N2"/>
    </vehicle>
    <vehicle id="0.201" depart="554.76">
        <route edges="7_4 4_5 5_6 6_9 9_6"/>
    </vehicle>
    <vehicle id="0.202" depart="557.52">
        <route edges="N2_2 2_5"/>
    </vehicle>
    <vehicle id="0.203" depart="560.28">
        <route edges="2_3 3_6 6_5 5_6"/>
    </vehicle>
    <vehicle id="0.204" depart="563.04">
        <route edges="9_6 6_5 5_4 4_1"/>
    </vehicle>
    <vehicle id="0.205" depart="565.80">
        <route edges="N3_3 3_2 2_5 5_8 8_7 7_W3"/>
    </vehicle>
    <vehicle id="0.206" depart="568.56">
        <route edges="E1_3 3_2"/>
    </vehicle>
    <vehicle id="0.207" depart="571.32">
        <route edges="4_1 1_2"/>
    </vehicle>
    <vehicle id="0.208" depart="574.08">
        <route edges="4_5 5_4"/>
    </vehicle>
    <vehicle id="0.209" depart="576.84">
        <route edges="S1_7 7_4 4_1 1_N1"/>
    </vehicle>
    <vehicle id="0.210" depart="579.60">
        <route edges="6_3 3_6 6_9"/>
    </vehicle>
    <vehicle id="0.211" depart="582.36">
        <route edges="3_6 6_5 5_8 8_7 7_8"/>
    </vehicle>
    <vehicle id="0.212" depart="585.12">
        <route edges="7_4 4_5 5_2 2_3 3_2"/>
    </vehicle>
    <vehicle id="0.213" depart="587.88">
        <route edges="9_8 8_7 7_4 4_1 1_2"/>
    </vehicle>
    <vehicle id="0.214" depart="590.64">
        <route edges="N1_1 1_4 4_7 7_W3"/>
    </vehicle>
    <vehicle id="0.215" depart="593.40">
        <route edges="2_3 3_2 2_5 5_4 4_W2"/>
    </vehicle>
    <vehicle id="0.216" depart="596.16">
        <route edges="3_6 6_9 9_E3"/>
    </vehicle>
    <vehicle id="0.217" depart="598.92">
        <route edges="7_8 8_7 7_4 4_1 1_4"/>
    </vehicle>
    <vehicle id="0.218" depart="601.68">
        <route edges="4_5 5_8 8_9"/>
    </vehicle>
    <vehicle id="0.219" depart="604.44">
        <route edges="6_9 9_8 8_5"/>
    </vehicle>
    <vehicle id="0.220" depart="607.20">
        <route edges="E1_3 3_6 6_9 9_S3"/>
    </vehicle>
    <vehicle id="0.221" depart="609.96">
        <route edges="8_9 9_E3"/>
    </vehicle>
    <vehicle id="0.222" depart="612.72">
        <route edges="S3_9 9_6 6_9"/>
    </vehicle>
    <vehicle id="0.223" depart="615.48">
        <route edges="E2_6 6_5 5_6"/>
    </vehicle>
    <vehicle id="0.224" depart="618.24">
        <route edges="N3_3 3_2 2_5 5_8"/>
    </vehicle>
    <vehicle id="0.225" depart="621.00">
        <route edges="S3_9 9_8 8_7 7_S1"/>
    </vehicle>
    <vehicle id="0.226" depart="623.76">
        <route edges="7_4 4_5 5_2 2_3 3_6"/>
    </vehicle>
    <vehicle id="0.227" depart="626.52">
        <route edges="4_5 5_6 6_9"/>
    </vehicle>
    <vehicle id="0.228" depart="629.28">
        <route edges="N1_1 1_4 4_5 5_6"/>
    </vehicle>
    <vehicle id="0.229" depart="632.04">
        <route edges="9_6 6_3 3_6"/>
    </vehicle>
    <vehicle id="0.230" depart="634.80">
        <route edges="2_1 1_2 2_3 3_E1"/>
    </vehicle>
    <vehicle id="0.231" depart="637.56">
        <route edges="4_7 7_4 4_5 5_2 2_3 3_N3"/>
    </vehicle>
    <vehicle id="0.232" depart="640.32">
        <route edges="8_5 5_2 2_1"/>
    </vehicle>
    <vehicle id="0.233" depart="643.08">
        <route edges="4_5 5_8 8_7 7_4"/>
    </vehicle>
    <vehicle id="0.234" depart="645.84">
        <route edges="E2_6 6_3 3_2 2_1 1_N1"/>
    </vehicle>
    <vehicle id="0.235" depart="648.60">
        <route edges="6_3 3_2 2_5 5_8"/>
    </vehicle>
    <vehicle id="0.236" depart="651.36">
        <route edges="6_3 3_2 2_N2"/>
    </vehicle>
    <vehicle id="0.237" depart="654.12">
        <route edges="6_5 5_6 6_9 9_6"/>
    </vehicle>
    <vehicle id="0.238" depart="656.88">
        <route edges="8_9 9_8 8_7 7_8"/>
    </vehicle>
    <vehicle id="0.239" depart="659.64">
        <route edges="S1_7 7_W3"/>
    </vehicle>
    <vehicle id="0.240" depart="662.40">
        <route edges="5_8 8_7 7_4 4_1 1_2"/>
    </vehicle>
    <vehicle id="0.241" depart="665.16">
        <route edges="5_6 6_5 5_8 8_7 7_W3"/>
    </vehicle>
    <vehicle id="0.242" depart="667.92">
        <route edges="S1_7 7_8 8_9 9_E3"/>
    </vehicle>
    <vehicle id="0.243" depart="670.68">
        <route edges="6_5 5_4 4_7 7_S1"/>
    </vehicle>
    <vehicle id="0.244" depart="673.44">
        <route edges="8_5 5_6 6_5"/>
    </vehicle>
    <vehicle id="0.245" depart="676.20">
        <route edges="4_1 1_2 2_N2"/>
    </vehicle>
    <vehicle id="0.246" depart="678.96">
        <route edges="6_5 5_4 4_1 1_4"/>
    </vehicle>
    <vehicle id="0.247" depart="681.72">
        <route edges="5_6 6_5 5_8 8_7 7_4"/>
    </vehicle>
    <vehicle id="0.248" depart="684.48">
        <route edges="6_3 3_2 2_3"/>
    </vehicle>
    <vehicle id="0.249" depart="687.24">
        <route edges="6_9 9_6 6_3 3_2 2_1"/>
    </vehicle>
    <vehicle id="0.250" depart="690.00">
        <route edges="9_6 6_5 5_4 4_1 1_2"/>
    </vehicle>
    <vehicle id="0.251" depart="692.76">
        <route edges="6_3"/>
    </vehicle>
    <vehicle id="0.252" depart="695.52">
        <route edges="1_2 2_3 3_6 6_E2"/>
    </vehicle>
    <vehicle id="0.253" depart="698.28">
        <route edges="2_5 5_2"/>
    </vehicle>
    <vehicle id="0.254" depart="701.04">
        <route edges="1_4 4_5"/>
    </vehicle>
    <vehicle id="0.255" depart="703.80">
        <route edges="4_1 1_2 2_3 3_N3"/>
    </vehicle>
    <vehicle id="0.256" depart="706.56">
        <route edges="N1_1 1_4 4_5"/>
    </vehicle>
    <vehicle id="0.257" depart="709.32">
        <route edges="N1_1 1_4 4_7 7_8 8_7"/>
    </vehicle>
    <vehicle id="0.258" depart="712.08">
        <route edges="4_7 7_4 4_1 1_N1"/>
    </vehicle>
    <vehicle id="0.259" depart="714.84">
        <route edges="1_2 2_5 5_8"/>
    </vehicle>
    <vehicle id="0.260" depart="717.60">
        <route edges="W3_7 7_4 4_1"/>
    </vehicle>
    <vehicle id="0.261" depart="720.36">
        <route edges="9_8 8_5"/>
    </vehicle>
    <vehicle id="0.262" depart="723.12">
        <route edges="9_8 8_7 7_W3"/>
    </vehicle>
    <vehicle id="0.263" depart="725.88">
        <route edges="W2_4 4_5 5_2 2_N2"/>
    </vehicle>
    <vehicle id="0.264" depart="728.64">
        <route edges="1_2 2_3"/>
    </vehicle>
    <vehicle id="0.265" depart="731.40">
        <route edges="2_5 5_8 8_7 7_4"/>
    </vehicle>
    <vehicle id="0.266" depart="734.16">
        <route edges="8_7 7_4 4_5 5_2 2_N2"/>
    </vehicle>
    <vehicle id="0.267" depart="736.92">
        <route edges="E2_6 6_5 5_8 8_7 7_W3"/>
    </vehicle>
    <vehicle id="0.268" depart="739.68">
        <route edges="3_6 6_5"/>
    </vehicle>
    <vehicle id="0.269" depart="742.44">
        <route edges="E3_9 9_6 6_3 3_2 2_1"/>
    </vehicle>
    <vehicle id="0.270" depart="745.20">
        <route edges="N3_3 3_6 6_9 9_E3"/>
    </vehicle>
    <vehicle id="0.271" depart="747.96">
        <route edges="2_3 3_2 2_1 1_2"/>
    </vehicle>
    <vehicle id="0.272" depart="750.72">
        <route edges="5_4 4_7 7_4"/>
    </vehicle>
    <vehicle id="0.273" depart="753.48">
        <route edges="W2_4 4_7"/>
    </vehicle>
    <vehicle id="0.274" depart="756.24">
        <route edges="E2_6 6_3 3_2 2_1 1_N1"/>
    </vehicle>
    <vehicle id="0.275" depart="759.00">
        <route edges="E1_3 3_6 6_9"/>
    </vehicle>
    <vehicle id="0.276" depart="761.76">
        <route edges="2_3 3_2 2_5 5_8 8_7 7_W3"/>
    </vehicle>
    <vehicle id="0.277" depart="764.52">
        <route edges="S1_7 7_4 4_5 5_6 6_5"/>
    </vehicle>
    <vehicle id="0.278" depart="767.28">
        <route edges="2_5 5_8 8_9 9_S3"/>
    </vehicle>
    <vehicle id="0.279" depart="770.04">
        <route edges="N2_2 2_5 5_4 4_1"/>
    </vehicle>
    <vehicle id="0.280" depart="772.80">
        <route edges="6_5 5_4 4_5"/>
    </vehicle>
    <vehicle id="0.281" depart="775.56">
        <route edges="7_8 8_7 7_4 4_1"/>
    </vehicle>
    <vehicle id="0.282" depart="778.32">
        <route edges="S1_7 7_8 8_7"/>
    </vehicle>
    <vehicle id="0.283" depart="781.08">
        <route edges="2_3 3_6 6_9 9_E3"/>
    </vehicle>
    <vehicle id="0.284" depart="783.84">
        <route edges="9_6 6_5 5_8 8_7"/>
    </vehicle>
    <vehicle id="0.285" depart="786.60">
        <route edges="E2_6 6_5 5_4 4_W2"/>
    </vehicle>
    <vehicle id="0.286" depart="789.36">
        <route edges="E3_9 9_E3"/>
    </vehicle>
    <vehicle id="0.287" depart="792.12">
        <route edges="4_7 7_8 8_7"/>
    </vehicle>
    <vehicle id="0.288" depart="794.88">
        <route edges="8_5 5_4"/>
    </vehicle>
    <vehicle id="0.289" depart="797.64">
        <route edges="6_5 5_4 4_7 7_S1"/>
    </vehicle>
    <vehicle id="0.290" depart="800.40">
        <route edges="4_7 7_8 8_9"/>
    </vehicle>
    <vehicle id="0.291" depart="803.16">
        <route edges="N3_3 3_2 2_1 1_W1"/>
    </vehicle>
    <vehicle id="0.292" depart="805.92">
        <route edges="S2_8 8_5 5_2 2_3 3_2"/>
    </vehicle>
    <vehicle id="0.293" depart="808.68">
        <route edges="6_9 9_6 6_5"/>
    </vehicle>
    <vehicle id="0.294" depart="811.44">
        <route edges="5_8 8_7 7_4 4_1 1_4"/>
    </vehicle>
    <vehicle id="0.295" depart="814.20">
        <route edges="S1_7 7_8 8_5 5_2 2_5"/>
    </vehicle>
    <vehicle id="0.296" depart="816.96">
        <route edges="4_1 1_4 4_7 7_8 8_5"/>
    </vehicle>
    <vehicle id="0.297" depart="819.72">
        <route edges="5_6 6_5 5_8 8_S2"/>
    </vehicle>
    <vehicle id="0.298" depart="822.48">
        <route edges="E2_6 6_3 3_6"/>
    </vehicle>
    <vehicle id="0.299" depart="825.24">
        <route edges="1_2 2_3 3_6 6_9 9_E3"/>
    </vehicle>
    <vehicle id="0.300" depart="828.00">
        <route edges="2_3 3_2 2_5 5_8 8_7 7_8"/>
    </vehicle>
    <vehicle id="0.301" depart="830.76">
        <route edges="7_4 4_7 7_W3"/>
    </vehicle>
    <vehicle id="0.302" depart="833.52">
        <route edges="E1_3 3_6 6_E2"/>
    </vehicle>
    <vehicle id="0.303" depart="836.28">
        <route edges="7_4 4_5 5_8 8_5"/>