<?xml version="1.0" encoding="UTF-8"?>

<!-- generated on 2023-01-30 20:20:55 by Eclipse SUMO netedit Version 1.10.0
<configuration xmlns:xsi="http://www.w3.org/2001/XMLSchema-instance" xsi:noNamespaceSchemaLocation="http://sumo.dlr.de/xsd/netconvertConfiguration.xsd">

    <input>
        <sumo-net-file value="D:\coding\drl_traffic_signal_control\res\3_3grid.net.xml"/>
    </input>

    <output>
        <output-file value="D:\coding\drl_traffic_signal_control\res\3_3grid.net.xml"/>
    </output>

    <processing>
        <geometry.min-radius.fix.railways value="false"/>
        <geometry.max-grade.fix value="false"/>
        <offset.disable-normalization value="true"/>
        <lefthand value="false"/>
    </processing>

    <junctions>
        <no-turnarounds value="true"/>
        <junctions.corner-detail value="5"/>
        <junctions.limit-turn-speed value="5.5"/>
        <rectangular-lane-cut value="false"/>
    </junctions>

    <pedestrian>
        <walkingareas value="false"/>
    </pedestrian>

    <report>
        <aggregate-warnings value="5"/>
    </report>

</configuration>
-->

<net version="1.9" junctionCornerDetail="5" limitTurnSpeed="5.50" xmlns:xsi="http://www.w3.org/2001/XMLSchema-instance" xsi:noNamespaceSchemaLocation="http://sumo.dlr.de/xsd/net_file.xsd">

    <location netOffset="0.00,0.00" convBoundary="0.00,-800.00,1200.00,400.00" origBoundary="-10000000000.00,-10000000000.00,10000000000.00,10000000000.00" projParameter="!"/>

    <edge id=":node1_0" function="internal">
        <lane id=":node1_0_0" index="0" speed="6.51" length="9.03" shape="292.00,113.60 291.65,111.15 290.60,109.40 288.85,108.35 286.40,108.00"/>
    </edge>
    <edge id=":node1_1" function="internal">
        <lane id=":node1_1_0" index="0" speed="13.89" length="27.20" shape="295.20,113.60 295.20,86.40"/>
    </edge>
    <edge id=":node1_2" function="internal">
        <lane id=":node1_2_0" index="0" speed="10.36" length="13.42" shape="298.40,113.60 299.35,106.95 302.20,102.20 303.20,101.60"/>
    </edge>
    <edge id=":node1_3" function="internal">
        <lane id=":node1_3_0" index="0" speed="3.65" length="2.34" shape="298.40,113.60 299.20,112.40 300.00,112.00"/>
    </edge>
    <edge id=":node1_16" function="internal">
        <lane id=":node1_16_0" index="0" speed="10.36" length="11.09" shape="303.20,101.60 306.95,99.35 313.60,98.40"/>
    </edge>
    <edge id=":node1_17" function="internal">
        <lane id=":node1_17_0" index="0" speed="3.65" length="2.34" shape="300.00,112.00 300.80,112.40 301.60,113.60"/>
    </edge>
    <edge id=":node1_4" function="internal">
        <lane id=":node1_4_0" index="0" speed="6.51" length="9.03" shape="313.60,108.00 311.15,108.35 309.40,109.40 308.35,111.15 308.00,113.60"/>
    </edge>
    <edge id=":node1_5" function="internal">
        <lane id=":node1_5_0" index="0" speed="13.89" length="27.20" shape="313.60,104.80 286.40,104.80"/>
    </edge>
    <edge id=":node1_6" function="internal">
        <lane id=":node1_6_0" index="0" speed="10.36" length="13.42" shape="313.60,101.60 306.95,100.65 302.20,97.80 301.60,96.80"/>
    </edge>
    <edge id=":node1_7" function="internal">
        <lane id=":node1_7_0" index="0" speed="3.65" length="2.34" shape="313.60,101.60 312.40,100.80 312.00,100.00"/>
    </edge>
    <edge id=":node1_18" function="internal">
        <lane id=":node1_18_0" index="0" speed="10.36" length="11.09" shape="301.60,96.80 299.35,93.05 298.40,86.40"/>
    </edge>
    <edge id=":node1_19" function="internal">
        <lane id=":node1_19_0" index="0" speed="3.65" length="2.34" shape="312.00,100.00 312.40,99.20 313.60,98.40"/>
    </edge>
    <edge id=":node1_8" function="internal">
        <lane id=":node1_8_0" index="0" speed="6.51" length="9.03" shape="308.00,86.40 308.35,88.85 309.40,90.60 311.15,91.65 313.60,92.00"/>
    </edge>
    <edge id=":node1_9" function="internal">
        <lane id=":node1_9_0" index="0" speed="13.89" length="27.20" shape="304.80,86.40 304.80,113.60"/>
    </edge>
    <edge id=":node1_10" function="internal">
        <lane id=":node1_10_0" index="0" speed="10.36" length="13.42" shape="301.60,86.40 300.65,93.05 297.80,97.80 296.80,98.40"/>
    </edge>
    <edge id=":node1_11" function="internal">
        <lane id=":node1_11_0" index="0" speed="3.65" length="2.34" shape="301.60,86.40 300.80,87.60 300.00,88.00"/>
    </edge>
    <edge id=":node1_20" function="internal">
        <lane id=":node1_20_0" index="0" speed="10.36" length="11.09" shape="296.80,98.40 293.05,100.65 286.40,101.60"/>
    </edge>
    <edge id=":node1_21" function="internal">
        <lane id=":node1_21_0" index="0" speed="3.65" length="2.34" shape="300.00,88.00 299.20,87.60 298.40,86.40"/>
    </edge>
    <edge id=":node1_12" function="internal">
        <lane id=":node1_12_0" index="0" speed="6.51" length="9.03" shape="286.40,92.00 288.85,91.65 290.60,90.60 291.65,88.85 292.00,86.40"/>
    </edge>
    <edge id=":node1_13" function="internal">
        <lane id=":node1_13_0" index="0" speed="13.89" length="27.20" shape="286.40,95.20 313.60,95.20"/>
    </edge>
    <edge id=":node1_14" function="internal">
        <lane id=":node1_14_0" index="0" speed="10.36" length="13.42" shape="286.40,98.40 293.05,99.35 297.80,102.20 298.40,103.20"/>
    </edge>
    <edge id=":node1_15" function="internal">
        <lane id=":node1_15_0" index="0" speed="3.65" length="2.34" shape="286.40,98.40 287.60,99.20 288.00,100.00"/>
    </edge>
    <edge id=":node1_22" function="internal">
        <lane id=":node1_22_0" index="0" speed="10.36" length="11.09" shape="298.40,103.20 300.65,106.95 301.60,113.60"/>
    </edge>
    <edge id=":node1_23" function="internal">
        <lane id=":node1_23_0" index="0" speed="3.65" length="2.34" shape="288.00,100.00 287.60,100.80 286.40,101.60"/>
    </edge>
    <edge id=":node2_0" function="internal">
        <lane id=":node2_0_0" index="0" speed="6.51" length="9.03" shape="592.00,113.60 591.65,111.15 590.60,109.40 588.85,108.35 586.40,108.00"/>
    </edge>
    <edge id=":node2_1" function="internal">
        <lane id=":node2_1_0" index="0" speed="13.89" length="27.20" shape="595.20,113.60 595.20,86.40"/>
    </edge>
    <edge id=":node2_2" function="internal">
        <lane id=":node2_2_0" index="0" speed="10.36" length="13.42" shape="598.40,113.60 599.35,106.95 602.20,102.20 603.20,101.60"/>
    </edge>
    <edge id=":node2_3" function="internal">
        <lane id=":node2_3_0" index="0" speed="3.65" length="2.34" shape="598.40,113.60 599.20,112.40 600.00,112.00"/>
    </edge>
    <edge id=":node2_16" function="internal">
        <lane id=":node2_16_0" index="0" speed="10.36" length="11.09" shape="603.20,101.60 606.95,99.35 613.60,98.40"/>
    </edge>
    <edge id=":node2_17" function="internal">
        <lane id=":node2_17_0" index="0" speed="3.65" length="2.34" shape="600.00,112.00 600.80,112.40 601.60,113.60"/>
    </edge>
    <edge id=":node2_4" function="internal">
        <lane id=":node2_4_0" index="0" speed="6.51" length="9.03" shape="613.60,108.00 611.15,108.35 609.40,109.40 608.35,111.15 608.00,113.60"/>
    </edge>
    <edge id=":node2_5" function="internal">
        <lane id=":node2_5_0" index="0" speed="13.89" length="27.20" shape="613.60,104.80 586.40,104.80"/>
    </edge>
    <edge id=":node2_6" function="internal">
        <lane id=":node2_6_0" index="0" speed="10.36" length="13.42" shape="613.60,101.60 606.95,100.65 602.20,97.80 601.60,96.80"/>
    </edge>
    <edge id=":node2_7" function="internal">
        <lane id=":node2_7_0" index="0" speed="3.65" length="2.34" shape="613.60,101.60 612.40,100.80 612.00,100.00"/>
    </edge>
    <edge id=":node2_18" function="internal">
        <lane id=":node2_18_0" index="0" speed="10.36" length="11.09" shape="601.60,96.80 599.35,93.05 598.40,86.40"/>
    </edge>
    <edge id=":node2_19" function="internal">
        <lane id=":node2_19_0" index="0" speed="3.65" length="2.34" shape="612.00,100.00 612.40,99.20 613.60,98.40"/>
    </edge>
    <edge id=":node2_8" function="internal">
        <lane id=":node2_8_0" index="0" speed="6.51" length="9.03" shape="608.00,86.40 608.35,88.85 609.40,90.60 611.15,91.65 613.60,92.00"/>
    </edge>
    <edge id=":node2_9" function="internal">
        <lane id=":node2_9_0" index="0" speed="13.89" length="27.20" shape="604.80,86.40 604.80,113.60"/>
    </edge>
    <edge id=":node2_10" function="internal">
        <lane id=":node2_10_0" index="0" speed="10.36" length="13.42" shape="601.60,86.40 600.65,93.05 597.80,97.80 596.80,98.40"/>
    </edge>
    <edge id=":node2_11" function="internal">
        <lane id=":node2_11_0" index="0" speed="3.65" length="2.34" shape="601.60,86.40 600.80,87.60 600.00,88.00"/>
    </edge>
    <edge id=":node2_20" function="internal">
        <lane id=":node2_20_0" index="0" speed="10.36" length="11.09" shape="596.80,98.40 593.05,100.65 586.40,101.60"/>
    </edge>
    <edge id=":node2_21" function="internal">
        <lane id=":node2_21_0" index="0" speed="3.65" length="2.34" shape="600.00,88.00 599.20,87.60 598.40,86.40"/>
    </edge>
    <edge id=":node2_12" function="internal">
        <lane id=":node2_12_0" index="0" speed="6.51" length="9.03" shape="586.40,92.00 588.85,91.65 590.60,90.60 591.65,88.85 592.00,86.40"/>
    </edge>
    <edge id=":node2_13" function="internal">
        <lane id=":node2_13_0" index="0" speed="13.89" length="27.20" shape="586.40,95.20 613.60,95.20"/>
    </edge>
    <edge id=":node2_14" function="internal">
        <lane id=":node2_14_0" index="0" speed="10.36" length="13.42" shape="586.40,98.40 593.05,99.35 597.80,102.20 598.40,103.20"/>
    </edge>
    <edge id=":node2_15" function="internal">
        <lane id=":node2_15_0" index="0" speed="3.65" length="2.34" shape="586.40,98.40 587.60,99.20 588.00,100.00"/>
    </edge>
    <edge id=":node2_22" function="internal">
        <lane id=":node2_22_0" index="0" speed="10.36" length="11.09" shape="598.40,103.20 600.65,106.95 601.60,113.60"/>
    </edge>
    <edge id=":node2_23" function="internal">
        <lane id=":node2_23_0" index="0" speed="3.65" length="2.34" shape="588.00,100.00 587.60,100.80 586.40,101.60"/>
    </edge>
    <edge id=":node3_0" function="internal">
        <lane id=":node3_0_0" index="0" speed="6.51" length="9.03" shape="892.00,113.60 891.65,111.15 890.60,109.40 888.85,108.35 886.40,108.00"/>
    </edge>
    <edge id=":node3_1" function="internal">
        <lane id=":node3_1_0" index="0" speed="13.89" length="27.20" shape="895.20,113.60 895.20,86.40"/>
    </edge>
    <edge id=":node3_2" function="internal">
        <lane id=":node3_2_0" index="0" speed="10.36" length="13.42" shape="898.40,113.60 899.35,106.95 902.20,102.20 903.20,101.60"/>
    </edge>
    <edge id=":node3_3" function="internal">
        <lane id=":node3_3_0" index="0" speed="3.65" length="2.34" shape="898.40,113.60 899.20,112.40 900.00,112.00"/>
    </edge>
    <edge id=":node3_16" function="internal">
        <lane id=":node3_16_0" index="0" speed="10.36" length="11.09" shape="903.20,101.60 906.95,99.35 913.60,98.40"/>
    </edge>
    <edge id=":node3_17" function="internal">
        <lane id=":node3_17_0" index="0" speed="3.65" length="2.34" shape="900.00,112.00 900.80,112.40 901.60,113.60"/>
    </edge>
    <edge id=":node3_4" function="internal">
        <lane id=":node3_4_0" index="0" speed="6.51" length="9.03" shape="913.60,108.00 911.15,108.35 909.40,109.40 908.35,111.15 908.00,113.60"/>
    </edge>
    <edge id=":node3_5" function="internal">
        <lane id=":node3_5_0" index="0" speed="13.89" length="27.20" shape="913.60,104.80 886.40,104.80"/>
    </edge>
    <edge id=":node3_6" function="internal">
        <lane id=":node3_6_0" index="0" speed="10.36" length="13.42" shape="913.60,101.60 906.95,100.65 902.20,97.80 901.60,96.80"/>
    </edge>
    <edge id=":node3_7" function="internal">
        <lane id=":node3_7_0" index="0" speed="3.65" length="2.34" shape="913.60,101.60 912.40,100.80 912.00,100.00"/>
    </edge>
    <edge id=":node3_18" function="internal">
        <lane id=":node3_18_0" index="0" speed="10.36" length="11.09" shape="901.60,96.80 899.35,93.05 898.40,86.40"/>
    </edge>
    <edge id=":node3_19" function="internal">
        <lane id=":node3_19_0" index="0" speed="3.65" length="2.34" shape="912.00,100.00 912.40,99.20 913.60,98.40"/>
    </edge>
    <edge id=":node3_8" function="internal">
        <lane id=":node3_8_0" index="0" speed="6.51" length="9.03" shape="908.00,86.40 908.35,88.85 909.40,90.60 911.15,91.65 913.60,92.00"/>
    </edge>
    <edge id=":node3_9" function="internal">
        <lane id=":node3_9_0" index="0" speed="13.89" length="27.20" shape="904.80,86.40 904.80,113.60"/>
    </edge>
    <edge id=":node3_10" function="internal">
        <lane id=":node3_10_0" index="0" speed="10.36" length="13.42" shape="901.60,86.40 900.65,93.05 897.80,97.80 896.80,98.40"/>
    </edge>
    <edge id=":node3_11" function="internal">
        <lane id=":node3_11_0" index="0" speed="3.65" length="2.34" shape="901.60,86.40 900.80,87.60 900.00,88.00"/>
    </edge>
    <edge id=":node3_20" function="internal">
        <lane id=":node3_20_0" index="0" speed="10.36" length="11.09" shape="896.80,98.40 893.05,100.65 886.40,101.60"/>
    </edge>
    <edge id=":node3_21" function="internal">
        <lane id=":node3_21_0" index="0" speed="3.65" length="2.34" shape="900.00,88.00 899.20,87.60 898.40,86.40"/>
    </edge>
    <edge id=":node3_12" function="internal">
        <lane id=":node3_12_0" index="0" speed="6.51" length="9.03" shape="886.40,92.00 888.85,91.65 890.60,90.60 891.65,88.85 892.00,86.40"/>
    </edge>
    <edge id=":node3_13" function="internal">
        <lane id=":node3_13_0" index="0" speed="13.89" length="27.20" shape="886.40,95.20 913.60,95.20"/>
    </edge>
    <edge id=":node3_14" function="internal">
        <lane id=":node3_14_0" index="0" speed="10.36" length="13.42" shape="886.40,98.40 893.05,99.35 897.80,102.20 898.40,103.20"/>
    </edge>
    <edge id=":node3_15" function="internal">
        <lane id=":node3_15_0" index="0" speed="3.65" length="2.34" shape="886.40,98.40 887.60,99.20 888.00,100.00"/>
    </edge>
    <edge id=":node3_22" function="internal">
        <lane id=":node3_22_0" index="0" speed="10.36" length="11.09" shape="898.40,103.20 900.65,106.95 901.60,113.60"/>
    </edge>
    <edge id=":node3_23" function="internal">
        <lane id=":node3_23_0" index="0" speed="3.65" length="2.34" shape="888.00,100.00 887.60,100.80 886.40,101.60"/>
    </edge>
    <edge id=":node4_0" function="internal">
        <lane id=":node4_0_0" index="0" speed="6.51" length="9.03" shape="292.00,-186.40 291.65,-188.85 290.60,-190.60 288.85,-191.65 286.40,-192.00"/>
    </edge>
    <edge id=":node4_1" function="internal">
        <lane id=":node4_1_0" index="0" speed="13.89" length="27.20" shape="295.20,-186.40 295.20,-213.60"/>
    </edge>
    <edge id=":node4_2" function="internal">
        <lane id=":node4_2_0" index="0" speed="10.36" length="13.42" shape="298.40,-186.40 299.35,-193.05 302.20,-197.80 303.20,-198.40"/>
    </edge>
    <edge id=":node4_3" function="internal">
        <lane id=":node4_3_0" index="0" speed="3.65" length="2.34" shape="298.40,-186.40 299.20,-187.60 300.00,-188.00"/>
    </edge>
    <edge id=":node4_16" function="internal">
        <lane id=":node4_16_0" index="0" speed="10.36" length="11.09" shape="303.20,-198.40 306.95,-200.65 313.60,-201.60"/>
    </edge>
    <edge id=":node4_17" function="internal">
        <lane id=":node4_17_0" index="0" speed="3.65" length="2.34" shape="300.00,-188.00 300.80,-187.60 301.60,-186.40"/>
    </edge>
    <edge id=":node4_4" function="internal">
        <lane id=":node4_4_0" index="0" speed="6.51" length="9.03" shape="313.60,-192.00 311.15,-191.65 309.40,-190.60 308.35,-188.85 308.00,-186.40"/>
    </edge>
    <edge id=":node4_5" function="internal">
        <lane id=":node4_5_0" index="0" speed="13.89" length="27.20" shape="313.60,-195.20 286.40,-195.20"/>
    </edge>
    <edge id=":node4_6" function="internal">
        <lane id=":node4_6_0" index="0" speed="10.36" length="13.42" shape="313.60,-198.40 306.95,-199.35 302.20,-202.20 301.60,-203.20"/>
    </edge>
    <edge id=":node4_7" function="internal">
        <lane id=":node4_7_0" index="0" speed="3.65" length="2.34" shape="313.60,-198.40 312.40,-199.20 312.00,-200.00"/>
    </edge>
    <edge id=":node4_18" function="internal">
        <lane id=":node4_18_0" index="0" speed="10.36" length="11.09" shape="301.60,-203.20 299.35,-206.95 298.40,-213.60"/>
    </edge>
    <edge id=":node4_19" function="internal">
        <lane id=":node4_19_0" index="0" speed="3.65" length="2.34" shape="312.00,-200.00 312.40,-200.80 313.60,-201.60"/>
    </edge>
    <edge id=":node4_8" function="internal">
        <lane id=":node4_8_0" index="0" speed="6.51" length="9.03" shape="308.00,-213.60 308.35,-211.15 309.40,-209.40 311.15,-208.35 313.60,-208.00"/>
    </edge>
    <edge id=":node4_9" function="internal">
        <lane id=":node4_9_0" index="0" speed="13.89" length="27.20" shape="304.80,-213.60 304.80,-186.40"/>
    </edge>
    <edge id=":node4_10" function="internal">
        <lane id=":node4_10_0" index="0" speed="10.36" length="13.42" shape="301.60,-213.60 300.65,-206.95 297.80,-202.20 296.80,-201.60"/>
    </edge>
    <edge id=":node4_11" function="internal">
        <lane id=":node4_11_0" index="0" speed="3.65" length="2.34" shape="301.60,-213.60 300.80,-212.40 300.00,-212.00"/>
    </edge>
    <edge id=":node4_20" function="internal">
        <lane id=":node4_20_0" index="0" speed="10.36" length="11.09" shape="296.80,-201.60 293.05,-199.35 286.40,-198.40"/>
    </edge>
    <edge id=":node4_21" function="internal">
        <lane id=":node4_21_0" index="0" speed="3.65" length="2.34" shape="300.00,-212.00 299.20,-212.40 298.40,-213.60"/>
    </edge>
    <edge id=":node4_12" function="internal">
        <lane id=":node4_12_0" index="0" speed="6.51" length="9.03" shape="286.40,-208.00 288.85,-208.35 290.60,-209.40 291.65,-211.15 292.00,-213.60"/>
    </edge>
    <edge id=":node4_13" function="internal">
        <lane id=":node4_13_0" index="0" speed="13.89" length="27.20" shape="286.40,-204.80 313.60,-204.80"/>
    </edge>
    <edge id=":node4_14" function="internal">
        <lane id=":node4_14_0" index="0" speed="10.36" length="13.42" shape="286.40,-201.60 293.05,-200.65 297.80,-197.80 298.40,-196.80"/>
    </edge>
    <edge id=":node4_15" function="internal">
        <lane id=":node4_15_0" index="0" speed="3.65" length="2.34" shape="286.40,-201.60 287.60,-200.80 288.00,-200.00"/>
    </edge>
    <edge id=":node4_22" function="internal">
        <lane id=":node4_22_0" index="0" speed="10.36" length="11.09" shape="298.40,-196.80 300.65,-193.05 301.60,-186.40"/>
    </edge>
    <edge id=":node4_23" function="internal">
        <lane id=":node4_23_0" index="0" speed="3.65" length="2.34" shape="288.00,-200.00 287.60,-199.20 286.40,-198.40"/>
    </edge>
    <edge id=":node5_0" function="internal">
        <lane id=":node5_0_0" index="0" speed="6.51" length="9.03" shape="592.00,-186.40 591.65,-188.85 590.60,-190.60 588.85,-191.65 586.40,-192.00"/>
    </edge>
    <edge id=":node5_1" function="internal">
        <lane id=":node5_1_0" index="0" speed="13.89" length="27.20" shape="595.20,-186.40 595.20,-213.60"/>
    </edge>
    <edge id=":node5_2" function="internal">
        <lane id=":node5_2_0" index="0" speed="10.36" length="13.42" shape="598.40,-186.40 599.35,-193.05 602.20,-197.80 603.20,-198.40"/>
    </edge>
    <edge id=":node5_3" function="internal">
        <lane id=":node5_3_0" index="0" speed="3.65" length="2.34" shape="598.40,-186.40 599.20,-187.60 600.00,-188.00"/>
    </edge>
    <edge id=":node5_16" function="internal">
        <lane id=":node5_16_0" index="0" speed="10.36" length="11.09" shape="603.20,-198.40 606.95,-200.65 613.60,-201.60"/>
    </edge>
    <edge id=":node5_17" function="internal">
        <lane id=":node5_17_0" index="0" speed="3.65" length="2.34" shape="600.00,-188.00 600.80,-187.60 601.60,-186.40"/>
    </edge>
    <edge id=":node5_4" function="internal">
        <lane id=":node5_4_0" index="0" speed="6.51" length="9.03" shape="613.60,-192.00 611.15,-191.65 609.40,-190.60 608.35,-188.85 608.00,-186.40"/>
    </edge>
    <edge id=":node5_5" function="internal">
        <lane id=":node5_5_0" index="0" speed="13.89" length="27.20" shape="613.60,-195.20 586.40,-195.20"/>
    </edge>
    <edge id=":node5_6" function="internal">
        <lane id=":node5_6_0" index="0" speed="10.36" length="13.42" shape="613.60,-198.40 606.95,-199.35 602.20,-202.20 601.60,-203.20"/>
    </edge>
    <edge id=":node5_7" function="internal">
        <lane id=":node5_7_0" index="0" speed="3.65" length="2.34" shape="613.60,-198.40 612.40,-199.20 612.00,-200.00"/>
    </edge>
    <edge id=":node5_18" function="internal">
        <lane id=":node5_18_0" index="0" speed="10.36" length="11.09" shape="601.60,-203.20 599.35,-206.95 598.40,-213.60"/>
    </edge>
    <edge id=":node5_19" function="internal">
        <lane id=":node5_19_0" index="0" speed="3.65" length="2.34" shape="612.00,-200.00 612.40,-200.80 613.60,-201.60"/>
    </edge>
    <edge id=":node5_8" function="internal">
        <lane id=":node5_8_0" index="0" speed="6.51" length="9.03" shape="608.00,-213.60 608.35,-211.15 609.40,-209.40 611.15,-208.35 613.60,-208.00"/>
    </edge>
    <edge id=":node5_9" function="internal">
        <lane id=":node5_9_0" index="0" speed="13.89" length="27.20" shape="604.80,-213.60 604.80,-186.40"/>
    </edge>
    <edge id=":node5_10" function="internal">
        <lane id=":node5_10_0" index="0" speed="10.36" length="13.42" shape="601.60,-213.60 600.65,-206.95 597.80,-202.20 596.80,-201.60"/>
    </edge>
    <edge id=":node5_11" function="internal">
        <lane id=":node5_11_0" index="0" speed="3.65" length="2.34" shape="601.60,-213.60 600.80,-212.40 600.00,-212.00"/>
    </edge>
    <edge id=":node5_20" function="internal">
        <lane id=":node5_20_0" index="0" speed="10.36" length="11.09" shape="596.80,-201.60 593.05,-199.35 586.40,-198.40"/>
    </edge>
    <edge id=":node5_21" function="internal">
        <lane id=":node5_21_0" index="0" speed="3.65" length="2.34" shape="600.00,-212.00 599.20,-212.40 598.40,-213.60"/>
    </edge>
    <edge id=":node5_12" function="internal">
        <lane id=":node5_12_0" index="0" speed="6.51" length="9.03" shape="586.40,-208.00 588.85,-208.35 590.60,-209.40 591.65,-211.15 592.00,-213.60"/>
    </edge>
    <edge id=":node5_13" function="internal">
        <lane id=":node5_13_0" index="0" speed="13.89" length="27.20" shape="586.40,-204.80 613.60,-204.80"/>
    </edge>
    <edge id=":node5_14" function="internal">
        <lane id=":node5_14_0" index="0" speed="10.36" length="13.42" shape="586.40,-201.60 593.05,-200.65 597.80,-197.80 598.40,-196.80"/>
    </edge>
    <edge id=":node5_15" function="internal">
        <lane id=":node5_15_0" index="0" speed="3.65" length="2.34" shape="586.40,-201.60 587.60,-200.80 588.00,-200.00"/>
    </edge>
    <edge id=":node5_22" function="internal">
        <lane id=":node5_22_0" index="0" speed="10.36" length="11.09" shape="598.40,-196.80 600.65,-193.05 601.60,-186.40"/>
    </edge>
    <edge id=":node5_23" function="internal">
        <lane id=":node5_23_0" index="0" speed="3.65" length="2.34" shape="588.00,-200.00 587.60,-199.20 586.40,-198.40"/>
    </edge>
    <edge id=":node6_0" function="internal">
        <lane id=":node6_0_0" index="0" speed="6.51" length="9.03" shape="892.00,-186.40 891.65,-188.85 890.60,-190.60 888.85,-191.65 886.40,-192.00"/>
    </edge>
    <edge id=":node6_1" function="internal">
        <lane id=":node6_1_0" index="0" speed="13.89" length="27.20" shape="895.20,-186.40 895.20,-213.60"/>
    </edge>
    <edge id=":node6_2" function="internal">
        <lane id=":node6_2_0" index="0" speed="10.36" length="13.42" shape="898.40,-186.40 899.35,-193.05 902.20,-197.80 903.20,-198.40"/>
    </edge>
    <edge id=":node6_3" function="internal">
        <lane id=":node6_3_0" index="0" speed="3.65" length="2.34" shape="898.40,-186.40 899.20,-187.60 900.00,-188.00"/>
    </edge>
    <edge id=":node6_16" function="internal">
        <lane id=":node6_16_0" index="0" speed="10.36" length="11.09" shape="903.20,-198.40 906.95,-200.65 913.60,-201.60"/>
    </edge>
    <edge id=":node6_17" function="internal">
        <lane id=":node6_17_0" index="0" speed="3.65" length="2.34" shape="900.00,-188.00 900.80,-187.60 901.60,-186.40"/>
    </edge>
    <edge id=":node6_4" function="internal">
        <lane id=":node6_4_0" index="0" speed="6.51" length="9.03" shape="913.60,-192.00 911.15,-191.65 909.40,-190.60 908.35,-188.85 908.00,-186.40"/>
    </edge>
    <edge id=":node6_5" function="internal">
        <lane id=":node6_5_0" index="0" speed="13.89" length="27.20" shape="913.60,-195.20 886.40,-195.20"/>
    </edge>
    <edge id=":node6_6" function="internal">
        <lane id=":node6_6_0" index="0" speed="10.36" length="13.42" shape="913.60,-198.40 906.95,-199.35 902.20,-202.20 901.60,-203.20"/>
    </edge>
    <edge id=":node6_7" function="internal">
        <lane id=":node6_7_0" index="0" speed="3.65" length="2.34" shape="913.60,-198.40 912.40,-199.20 912.00,-200.00"/>
    </edge>
    <edge id=":node6_18" function="internal">
        <lane id=":node6_18_0" index="0" speed="10.36" length="11.09" shape="901.60,-203.20 899.35,-206.95 898.40,-213.60"/>
    </edge>
    <edge id=":node6_19" function="internal">
        <lane id=":node6_19_0" index="0" speed="3.65" length="2.34" shape="912.00,-200.00 912.40,-200.80 913.60,-201.60"/>
    </edge>
    <edge id=":node6_8" function="internal">
        <lane id=":node6_8_0" index="0" speed="6.51" length="9.03" shape="908.00,-213.60 908.35,-211.15 909.40,-209.40 911.15,-208.35 913.60,-208.00"/>
    </edge>
    <edge id=":node6_9" function="internal">
        <lane id=":node6_9_0" index="0" speed="13.89" length="27.20" shape="904.80,-213.60 904.80,-186.40"/>
    </edge>
    <edge id=":node6_10" function="internal">
        <lane id=":node6_10_0" index="0" speed="10.36" length="13.42" shape="901.60,-213.60 900.65,-206.95 897.80,-202.20 896.80,-201.60"/>
    </edge>
    <edge id=":node6_11" function="internal">
        <lane id=":node6_11_0" index="0" speed="3.65" length="2.34" shape="901.60,-213.60 900.80,-212.40 900.00,-212.00"/>
    </edge>
    <edge id=":node6_20" function="internal">
        <lane id=":node6_20_0" index="0" speed="10.36" length="11.09" shape="896.80,-201.60 893.05,-199.35 886.40,-198.40"/>
    </edge>
    <edge id=":node6_21" function="internal">
        <lane id=":node6_21_0" index="0" speed="3.65" length="2.34" shape="900.00,-212.00 899.20,-212.40 898.40,-213.60"/>
    </edge>
    <edge id=":node6_12" function="internal">
        <lane id=":node6_12_0" index="0" speed="6.51" length="9.03" shape="886.40,-208.00 888.85,-208.35 890.60,-209.40 891.65,-211.15 892.00,-213.60"/>
    </edge>
    <edge id=":node6_13" function="internal">
        <lane id=":node6_13_0" index="0" speed="13.89" length="27.20" shape="886.40,-204.80 913.60,-204.80"/>
    </edge>
    <edge id=":node6_14" function="internal">
        <lane id=":node6_14_0" index="0" speed="10.36" length="13.42" shape="886.40,-201.60 893.05,-200.65 897.80,-197.80 898.40,-196.80"/>
    </edge>
    <edge id=":node6_15" function="internal">
        <lane id=":node6_15_0" index="0" speed="3.65" length="2.34" shape="886.40,-201.60 887.60,-200.80 888.00,-200.00"/>
    </edge>
    <edge id=":node6_22" function="internal">
        <lane id=":node6_22_0" index="0" speed="10.36" length="11.09" shape="898.40,-196.80 900.65,-193.05 901.60,-186.40"/>
    </edge>
    <edge id=":node6_23" function="internal">
        <lane id=":node6_23_0" index="0" speed="3.65" length="2.34" shape="888.00,-200.00 887.60,-199.20 886.40,-198.40"/>
    </edge>
    <edge id=":node7_0" function="internal">
        <lane id=":node7_0_0" index="0" speed="6.51" length="9.03" shape="292.00,-486.40 291.65,-488.85 290.60,-490.60 288.85,-491.65 286.40,-492.00"/>
    </edge>
    <edge id=":node7_1" function="internal">
        <lane id=":node7_1_0" index="0" speed="13.89" length="27.20" shape="295.20,-486.40 295.20,-513.60"/>
    </edge>
    <edge id=":node7_2" function="internal">
        <lane id=":node7_2_0" index="0" speed="10.36" length="13.42" shape="298.40,-486.40 299.35,-493.05 302.20,-497.80 303.20,-498.40"/>
    </edge>
    <edge id=":node7_3" function="internal">
        <lane id=":node7_3_0" index="0" speed="3.65" length="2.34" shape="298.40,-486.40 299.20,-487.60 300.00,-488.00"/>
    </edge>
    <edge id=":node7_16" function="internal">
        <lane id=":node7_16_0" index="0" speed="10.36" length="11.09" shape="303.20,-498.40 306.95,-500.65 313.60,-501.60"/>
    </edge>
    <edge id=":node7_17" function="internal">
        <lane id=":node7_17_0" index="0" speed="3.65" length="2.34" shape="300.00,-488.00 300.80,-487.60 301.60,-486.40"/>
    </edge>
    <edge id=":node7_4" function="internal">
        <lane id=":node7_4_0" index="0" speed="6.51" length="9.03" shape="313.60,-492.00 311.15,-491.65 309.40,-490.60 308.35,-488.85 308.00,-486.40"/>
    </edge>
    <edge id=":node7_5" function="internal">
        <lane id=":node7_5_0" index="0" speed="13.89" length="27.20" shape="313.60,-495.20 286.40,-495.20"/>
    </edge>
    <edge id=":node7_6" function="internal">
        <lane id=":node7_6_0" index="0" speed="10.36" length="13.42" shape="313.60,-498.40 306.95,-499.35 302.20,-502.20 301.60,-503.20"/>
    </edge>
    <edge id=":node7_7" function="internal">
        <lane id=":node7_7_0" index="0" speed="3.65" length="2.34" shape="313.60,-498.40 312.40,-499.20 312.00,-500.00"/>
    </edge>
    <edge id=":node7_18" function="internal">
        <lane id=":node7_18_0" index="0" speed="10.36" length="11.09" shape="301.60,-503.20 299.35,-506.95 298.40,-513.60"/>
    </edge>