<?xml version="1.0" encoding="UTF-8"?>

<!-- generated on 2023-06-17 15:31:27 by Eclipse SUMO duarouter Version 1.10.0
<configuration xmlns:xsi="http://www.w3.org/2001/XMLSchema-instance" xsi:noNamespaceSchemaLocation="http://sumo.dlr.de/xsd/duarouterConfiguration.xsd">

    <input>
        <net-file value="3_3tl_vl.net.xml"/>
        <route-files value="3_3xcp6.trips.xml,3_3xcp7.trips.xml,3_3xcp75.trips.xml,3_3xcp8.trips.xml,3_3xcp9.trips.xml"/>
    </input>

    <output>
        <output-file value="3_3xcp6_9.rou.xml"/>
        <alternatives-output value="3_3xcp6_9.rou.alt.xml"/>
    </output>

</configuration>
-->

<routes xmlns:xsi="http://www.w3.org/2001/XMLSchema-instance" xsi:noNamespaceSchemaLocation="http://sumo.dlr.de/xsd/routes_file.xsd">
    <vehicle id="0.0" depart="0.00">
        <route edges="9_8 8_7 7_4 4_1 1_4"/>
    </vehicle>
    <vehicle id="0.1" depart="3.27">
        <route edges="5_4 4_5 5_2 2_3 3_6"/>
    </vehicle>
    <vehicle id="0.2" depart="6.54">
        <route edges="E3_9 9_8 8_7 7_8"/>
    </vehicle>
    <vehicle id="0.3" depart="9.81">
        <route edges="S3_9 9_6 6_3 3_2 2_1"/>
    </vehicle>
    <vehicle id="0.4" depart="13.08">
        <route edges="6_5 5_4 4_1 1_4"/>
    </vehicle>
    <vehicle id="0.5" depart="16.35">
        <route edges="4_7 7_4 4_5 5_8"/>
    </vehicle>
    <vehicle id="0.6" depart="19.62">
        <route edges="1_4 4_5 5_2 2_3 3_2"/>
    </vehicle>
    <vehicle id="0.7" depart="22.89">
        <route edges="9_8 8_5 5_6 6_3"/>
    </vehicle>
    <vehicle id="0.8" depart="26.16">
        <route edges="4_7 7_4 4_5 5_6 6_9"/>
    </vehicle>
    <vehicle id="0.9" depart="29.43">
        <route edges="N2_2 2_1 1_2"/>
    </vehicle>
    <vehicle id="0.10" depart="32.70">
        <route edges="N2_2 2_5 5_8 8_7 7_S1"/>
    </vehicle>
    <vehicle id="0.11" depart="35.97">
        <route edges="5_6 6_3 3_2 2_5"/>
    </vehicle>
    <vehicle id="0.12" depart="39.24">
        <route edges="W2_4 4_7"/>
    </vehicle>
    <vehicle id="0.13" depart="42.51">
        <route edges="2_5 5_2 2_1"/>
    </vehicle>
    <vehicle id="0.14" depart="45.78">
        <route edges="S1_7 7_8 8_5 5_6 6_9"/>
    </vehicle>
    <vehicle id="0.15" depart="49.05">
        <route edges="N2_2 2_5 5_8 8_7 7_W3"/>
    </vehicle>
    <vehicle id="0.16" depart="52.32">
        <route edges="8_5 5_8 8_9 9_E3"/>
    </vehicle>
    <vehicle id="0.17" depart="55.59">
        <route edges="6_3 3_6 6_5"/>
    </vehicle>
    <vehicle id="0.18" depart="58.86">
        <route edges="N3_3 3_6 6_E2"/>
    </vehicle>
    <vehicle id="0.19" depart="62.13">
        <route edges="S2_8 8_5 5_6 6_5"/>
    </vehicle>
    <vehicle id="0.20" depart="65.40">
        <route edges="E2_6 6_3 3_2 2_1 1_N1"/>
    </vehicle>
    <vehicle id="0.21" depart="68.67">
        <route edges="4_7 7_4 4_1"/>
    </vehicle>
    <vehicle id="0.22" depart="71.94">
        <route edges="2_3 3_6"/>
    </vehicle>
    <vehicle id="0.23" depart="75.21">
        <route edges="2_5 5_4 4_1"/>
    </vehicle>
    <vehicle id="0.24" depart="78.48">
        <route edges="9_8 8_7 7_4 4_W2"/>
    </vehicle>
    <vehicle id="0.25" depart="81.75">
        <route edges="5_8 8_5 5_2 2_3 3_2"/>
    </vehicle>
    <vehicle id="0.26" depart="85.02">
        <route edges="5_2 2_3 3_6 6_9 9_8"/>
    </vehicle>
    <vehicle id="0.27" depart="88.29">
        <route edges="9_8 8_5 5_6 6_E2"/>
    </vehicle>
    <vehicle id="0.28" depart="91.56">
        <route edges="4_1 1_4 4_7 7_W3"/>
    </vehicle>
    <vehicle id="0.29" depart="94.83">
        <route edges="4_1 1_4 4_W2"/>
    </vehicle>
    <vehicle id="0.30" depart="98.10">
        <route edges="W3_7 7_4"/>
    </vehicle>
    <vehicle id="0.31" depart="101.37">
        <route edges="8_7 7_8"/>
    </vehicle>
    <vehicle id="0.32" depart="104.64">
        <route edges="S1_7 7_8 8_5"/>
    </vehicle>
    <vehicle id="0.33" depart="107.91">
        <route edges="4_7 7_4 4_1 1_4"/>
    </vehicle>
    <vehicle id="0.34" depart="111.18">
        <route edges="5_6 6_3 3_N3"/>
    </vehicle>
    <vehicle id="0.35" depart="114.45">
        <route edges="4_5 5_6 6_9 9_8"/>
    </vehicle>
    <vehicle id="0.36" depart="117.72">
        <route edges="S2_8 8_7 7_4 4_5"/>
    </vehicle>
    <vehicle id="0.37" depart="120.99">
        <route edges="9_8 8_5 5_2"/>
    </vehicle>
    <vehicle id="0.38" depart="124.26">
        <route edges="W1_1 1_4 4_5 5_6"/>
    </vehicle>
    <vehicle id="0.39" depart="127.53">
        <route edges="5_2 2_3 3_E1"/>
    </vehicle>
    <vehicle id="0.40" depart="130.80">
        <route edges="8_7 7_4 4_5 5_2 2_3 3_N3"/>
    </vehicle>
    <vehicle id="0.41" depart="134.07">
        <route edges="8_9 9_6"/>
    </vehicle>
    <vehicle id="0.42" depart="137.34">
        <route edges="6_5 5_2 2_3 3_6"/>
    </vehicle>
    <vehicle id="0.43" depart="140.61">
        <route edges="W3_7 7_4 4_5 5_8"/>
    </vehicle>
    <vehicle id="0.44" depart="143.88">
        <route edges="2_5 5_4 4_1 1_N1"/>
    </vehicle>
    <vehicle id="0.45" depart="147.15">
        <route edges="2_5 5_6 6_E2"/>
    </vehicle>
    <vehicle id="0.46" depart="150.42">
        <route edges="N2_2 2_5 5_2"/>
    </vehicle>
    <vehicle id="0.47" depart="153.69">
        <route edges="2_3 3_2 2_5 5_4 4_W2"/>
    </vehicle>
    <vehicle id="0.48" depart="156.96">
        <route edges="W3_7 7_8 8_5 5_6 6_3"/>
    </vehicle>
    <vehicle id="0.49" depart="160.23">
        <route edges="W3_7 7_8 8_S2"/>
    </vehicle>
    <vehicle id="0.50" depart="163.50">
        <route edges="1_2 2_5 5_8 8_7 7_W3"/>
    </vehicle>
    <vehicle id="0.51" depart="166.77">
        <route edges="E1_3 3_6 6_3"/>
    </vehicle>
    <vehicle id="0.52" depart="170.04">
        <route edges="5_2 2_5 5_8 8_7 7_4"/>
    </vehicle>
    <vehicle id="0.53" depart="173.31">
        <route edges="2_5 5_4"/>
    </vehicle>
    <vehicle id="0.54" depart="176.58">
        <route edges="7_4 4_7 7_8 8_9 9_E3"/>
    </vehicle>
    <vehicle id="0.55" depart="179.85">
        <route edges="S2_8 8_5 5_2 2_3 3_N3"/>
    </vehicle>
    <vehicle id="0.56" depart="183.12">
        <route edges="7_8 8_5 5_2 2_N2"/>
    </vehicle>
    <vehicle id="0.57" depart="186.39">
        <route edges="W1_1 1_4 4_7 7_8 8_S2"/>
    </vehicle>
    <vehicle id="0.58" depart="189.66">
        <route edges="5_4 4_7 7_4"/>
    </vehicle>
    <vehicle id="0.59" depart="192.93">
        <route edges="8_9 9_6 6_3 3_2 2_5"/>
    </vehicle>
    <vehicle id="0.60" depart="196.20">
        <route edges="N1_1 1_2 2_3 3_6 6_3"/>
    </vehicle>
    <vehicle id="0.61" depart="199.47">
        <route edges="N2_2 2_3 3_6 6_3"/>
    </vehicle>
    <vehicle id="0.62" depart="202.74">
        <route edges="1_2 2_5 5_4 4_5"/>
    </vehicle>
    <vehicle id="0.63" depart="206.01">
        <route edges="1_2 2_3 3_6 6_9 9_8"/>
    </vehicle>
    <vehicle id="0.64" depart="209.28">
        <route edges="S2_8 8_9"/>
    </vehicle>
    <vehicle id="0.65" depart="212.55">
        <route edges="5_6 6_5 5_4 4_1 1_N1"/>
    </vehicle>
    <vehicle id="0.66" depart="215.82">
        <route edges="S2_8 8_9 9_E3"/>
    </vehicle>
    <vehicle id="0.67" depart="219.09">
        <route edges="2_5 5_6"/>
    </vehicle>
    <vehicle id="0.68" depart="222.36">
        <route edges="2_3 3_2 2_5 5_8 8_5"/>
    </vehicle>
    <vehicle id="0.69" depart="225.63">
        <route edges="N1_1 1_2 2_5"/>
    </vehicle>
    <vehicle id="0.70" depart="228.90">
        <route edges="7_8 8_5 5_6 6_5"/>
    </vehicle>
    <vehicle id="0.71" depart="232.17">
        <route edges="5_2 2_5 5_8 8_S2"/>
    </vehicle>
    <vehicle id="0.72" depart="235.44">
        <route edges="6_5 5_2 2_3 3_2"/>
    </vehicle>
    <vehicle id="0.73" depart="238.71">
        <route edges="8_5 5_8 8_7 7_W3"/>
    </vehicle>
    <vehicle id="0.74" depart="241.98">
        <route edges="4_5"/>
    </vehicle>
    <vehicle id="0.75" depart="245.25">
        <route edges="W3_7 7_4"/>
    </vehicle>
    <vehicle id="0.76" depart="248.52">
        <route edges="6_9 9_8 8_5 5_8"/>
    </vehicle>
    <vehicle id="0.77" depart="251.79">
        <route edges="3_2 2_3 3_6"/>
    </vehicle>
    <vehicle id="0.78" depart="255.06">
        <route edges="5_6 6_9"/>
    </vehicle>
    <vehicle id="0.79" depart="258.33">
        <route edges="4_7 7_4 4_5 5_2 2_3 3_6"/>
    </vehicle>
    <vehicle id="0.80" depart="261.60">
        <route edges="2_3 3_6 6_E2"/>
    </vehicle>
    <vehicle id="0.81" depart="264.87">
        <route edges="4_7 7_8 8_9 9_6"/>
    </vehicle>
    <vehicle id="0.82" depart="268.14">
        <route edges="S2_8 8_7 7_4 4_1 1_W1"/>
    </vehicle>
    <vehicle id="0.83" depart="271.41">
        <route edges="5_2 2_5 5_8 8_7 7_8"/>
    </vehicle>
    <vehicle id="0.84" depart="274.68">
        <route edges="4_5 5_2 2_5"/>
    </vehicle>
    <vehicle id="0.85" depart="277.95">
        <route edges="W2_4 4_5 5_6 6_5"/>
    </vehicle>
    <vehicle id="0.86" depart="281.22">
        <route edges="7_8 8_5"/>
    </vehicle>
    <vehicle id="0.87" depart="284.49">
        <route edges="N2_2 2_N2"/>
    </vehicle>
    <vehicle id="0.88" depart="287.76">
        <route edges="2_5 5_4"/>
    </vehicle>
    <vehicle id="0.89" depart="291.03">
        <route edges="6_5 5_6"/>
    </vehicle>
    <vehicle id="0.90" depart="294.30">
        <route edges="E3_9 9_8 8_7 7_8"/>
    </vehicle>
    <vehicle id="0.91" depart="297.57">
        <route edges="W3_7 7_8 8_5 5_2 2_1"/>
    </vehicle>
    <vehicle id="0.92" depart="300.84">
        <route edges="6_5 5_4 4_7"/>
    </vehicle>
    <vehicle id="0.93" depart="304.11">
        <route edges="S2_8 8_5 5_2 2_3 3_E1"/>
    </vehicle>
    <vehicle id="0.94" depart="307.38">
        <route edges="4_5 5_4"/>
    </vehicle>
    <vehicle id="0.95" depart="310.65">
        <route edges="6_5 5_4 4_1"/>
    </vehicle>
    <vehicle id="0.96" depart="313.92">
        <route edges="5_2 2_3 3_6 6_9 9_8"/>
    </vehicle>
    <vehicle id="0.97" depart="317.19">
        <route edges="6_9 9_8 8_S2"/>
    </vehicle>
    <vehicle id="0.98" depart="320.46">
        <route edges="8_7 7_4 4_1 1_N1"/>
    </vehicle>
    <vehicle id="0.99" depart="323.73">
        <route edges="W3_7 7_8 8_9"/>
    </vehicle>
    <vehicle id="0.100" depart="327.00">
        <route edges="W3_7 7_8 8_9 9_8"/>
    </vehicle>
    <vehicle id="0.101" depart="330.27">
        <route edges="S1_7 7_8 8_5 5_2 2_N2"/>
    </vehicle>
    <vehicle id="0.102" depart="333.54">
        <route edges="7_8 8_5 5_2 2_3 3_2"/>
    </vehicle>
    <vehicle id="0.103" depart="336.81">
        <route edges="6_5 5_4 4_1 1_N1"/>
    </vehicle>
    <vehicle id="0.104" depart="340.08">
        <route edges="6_3 3_6 6_9 9_S3"/>
    </vehicle>
    <vehicle id="0.105" depart="343.35">
        <route edges="5_2 2_5 5_8 8_5"/>
    </vehicle>
    <vehicle id="0.106" depart="346.62">
        <route edges="7_4 4_5 5_2"/>
    </vehicle>
    <vehicle id="0.107" depart="349.89">
        <route edges="W2_4 4_7 7_8 8_9 9_S3"/>
    </vehicle>
    <vehicle id="0.108" depart="353.16">
        <route edges="8_7 7_W3"/>
    </vehicle>
    <vehicle id="0.109" depart="356.43">
        <route edges="3_6 6_5 5_4 4_1"/>
    </vehicle>
    <vehicle id="0.110" depart="359.70">
        <route edges="W3_7 7_8 8_5 5_6 6_5"/>
    </vehicle>
    <vehicle id="0.111" depart="362.97">
        <route edges="8_7 7_W3"/>
    </vehicle>
    <vehicle id="0.112" depart="366.24">
        <route edges="2_1 1_2 2_3 3_6 6_9"/>
    </vehicle>
    <vehicle id="0.113" depart="369.51">
        <route edges="7_8 8_9"/>
    </vehicle>
    <vehicle id="0.114" depart="372.78">
        <route edges="3_6 6_9 9_E3"/>
    </vehicle>
    <vehicle id="0.115" depart="376.05">
        <route edges="2_3 3_2 2_N2"/>
    </vehicle>
    <vehicle id="0.116" depart="379.32">
        <route edges="8_9 9_8 8_7 7_8"/>
    </vehicle>
    <vehicle id="0.117" depart="382.59">
        <route edges="4_7 7_4 4_5 5_2 2_3"/>
    </vehicle>
    <vehicle id="0.118" depart="385.86">
        <route edges="S3_9 9_6 6_3 3_E1"/>
    </vehicle>
    <vehicle id="0.119" depart="389.13">
        <route edges="8_9 9_6 6_E2"/>
    </vehicle>
    <vehicle id="0.120" depart="392.40">
        <route edges="6_5 5_6 6_9"/>
    </vehicle>
    <vehicle id="0.121" depart="395.67">
        <route edges="8_5 5_6 6_9 9_8"/>
    </vehicle>
    <vehicle id="0.122" depart="398.94">
        <route edges="4_5 5_8 8_7 7_W3"/>
    </vehicle>
    <vehicle id="0.123" depart="402.21">
        <route edges="5_2"/>
    </vehicle>
    <vehicle id="0.124" depart="405.48">
        <route edges="E1_3 3_2 2_5 5_4 4_5"/>
    </vehicle>
    <vehicle id="0.125" depart="408.75">
        <route edges="5_6 6_9 9_8 8_5"/>
    </vehicle>
    <vehicle id="0.126" depart="412.02">
        <route edges="2_3 3_2 2_5 5_4"/>
    </vehicle>
    <vehicle id="0.127" depart="415.29">
        <route edges="W3_7 7_8 8_9 9_S3"/>
    </vehicle>
    <vehicle id="0.128" depart="418.56">
        <route edges="2_3 3_2"/>
    </vehicle>
    <vehicle id="0.129" depart="421.83">
        <route edges="5_2 2_3 3_6 6_9 9_8"/>
    </vehicle>
    <vehicle id="0.130" depart="425.10">
        <route edges="S2_8 8_S2"/>
    </vehicle>
    <vehicle id="0.131" depart="428.37">
        <route edges="5_8 8_5 5_2 2_5"/>
    </vehicle>
    <vehicle id="0.132" depart="431.64">
        <route edges="S1_7 7_S1"/>
    </vehicle>
    <vehicle id="0.133" depart="434.91">
        <route edges="9_6 6_9 9_S3"/>
    </vehicle>
    <vehicle id="0.134" depart="438.18">
        <route edges="9_8 8_7 7_4 4_1 1_2"/>
    </vehicle>
    <vehicle id="0.135" depart="441.45">
        <route edges="N3_3 3_2 2_5 5_4 4_5"/>
    </vehicle>
    <vehicle id="0.136" depart="444.72">
        <route edges="9_8"/>
    </vehicle>
    <vehicle id="0.137" depart="447.99">
        <route edges="3_2 2_3"/>
    </vehicle>
    <vehicle id="0.138" depart="451.26">
        <route edges="2_5 5_6 6_5"/>
    </vehicle>
    <vehicle id="0.139" depart="454.53">
        <route edges="5_4 4_5 5_6 6_E2"/>
    </vehicle>
    <vehicle id="0.140" depart="457.80">
        <route edges="E2_6 6_3 3_2"/>
    </vehicle>
    <vehicle id="0.141" depart="461.07">
        <route edges="9_8 8_5 5_2 2_3 3_N3"/>
    </vehicle>
    <vehicle id="0.142" depart="464.34">
        <route edges="7_8 8_9 9_6"/>
    </vehicle>
    <vehicle id="0.143" depart="467.61">
        <route edges="S1_7 7_8 8_5 5_2 2_1"/>
    </vehicle>
    <vehicle id="0.144" depart="470.88">
        <route edges="6_5 5_2 2_3 3_N3"/>
    </vehicle>
    <vehicle id="0.145" depart="474.15">
        <route edges="1_2 2_5 5_8 8_5"/>
    </vehicle>
    <vehicle id="0.146" depart="477.42">
        <route edges="9_8 8_5 5_2 2_3 3_N3"/>
    </vehicle>
    <vehicle id="0.147" depart="480.69">
        <route edges="E3_9 9_6 6_5"/>
    </vehicle>
    <vehicle id="0.148" depart="483.96">
        <route edges="6_5 5_4 4_1 1_2"/>
    </vehicle>
    <vehicle id="0.149" depart="487.23">
        <route edges="2_3 3_2 2_5 5_8 8_S2"/>
    </vehicle>
    <vehicle id="0.150" depart="490.50">
        <route edges="S3_9 9_6 6_3"/>
    </vehicle>
    <vehicle id="0.151" depart="493.77">
        <route edges="S1_7 7_8 8_5 5_6 6_5"/>
    </vehicle>
    <vehicle id="0.152" depart="497.04">
        <route edges="3_6 6_3 3_2 2_5"/>
    </vehicle>
    <vehicle id="0.153" depart="500.31">
        <route edges="5_6 6_9 9_6"/>
    </vehicle>
    <vehicle id="0.154" depart="503.58">
        <route edges="N2_2 2_5 5_8 8_S2"/>
    </vehicle>
    <vehicle id="0.155" depart="506.85">
        <route edges="S3_9 9_6 6_3 3_2"/>
    </vehicle>
    <vehicle id="0.156" depart="510.12">
        <route edges="5_2 2_1"/>
    </vehicle>
    <vehicle id="0.157" depart="513.39">
        <route edges="N2_2 2_5 5_8 8_S2"/>
    </vehicle>
    <vehicle id="0.158" depart="516.66">
        <route edges="6_5 5_6 6_E2"/>
    </vehicle>
    <vehicle id="0.159" depart="519.93">
        <route edges="3_6 6_9 9_8"/>
    </vehicle>
    <vehicle id="0.160" depart="523.20">
        <route edges="S2_8 8_9 9_E3"/>
    </vehicle>
    <vehicle id="0.161" depart="526.47">
        <route edges="N2_2 2_5 5_8 8_S2"/>
    </vehicle>
    <vehicle id="0.162" depart="529.74">
        <route edges="1_4 4_7 7_W3"/>
    </vehicle>
    <vehicle id="0.163" depart="533.01">
        <route edges="5_6 6_9 9_8"/>
    </vehicle>
    <vehicle id="0.164" depart="536.28">
        <route edges="N2_2 2_5 5_8 8_S2"/>
    </vehicle>
    <vehicle id="0.165" depart="539.55">
        <route edges="N2_2 2_3 3_N3"/>
    </vehicle>
    <vehicle id="0.166" depart="542.82">
        <route edges="N2_2 2_3"/>
    </vehicle>
    <vehicle id="0.167" depart="546.09">
        <route edges="S2_8 8_S2"/>
    </vehicle>
    <vehicle id="0.168" depart="549.36">
        <route edges="4_7 7_8 8_7"/>
    </vehicle>
    <vehicle id="0.169" depart="552.63">
        <route edges="7_4 4_5"/>
    </vehicle>
    <vehicle id="0.170" depart="555.90">
        <route edges="N2_2 2_3 3_6"/>
    </vehicle>
    <vehicle id="0.171" depart="559.17">
        <route edges="1_4 4_5 5_2 2_N2"/>
    </vehicle>
    <vehicle id="0.172" depart="562.44">
        <route edges="5_6 6_5 5_8 8_S2"/>
    </vehicle>
    <vehicle id="0.173" depart="565.71">
        <route edges="W3_7 7_4 4_1"/>
    </vehicle>
    <vehicle id="0.174" depart="568.98">
        <route edges="9_8 8_5 5_2"/>
    </vehicle>
    <vehicle id="0.175" depart="572.25">
        <route edges="W3_7 7_8 8_5 5_6 6_3"/>
    </vehicle>
    <vehicle id="0.176" depart="575.52">
        <route edges="W2_4 4_5 5_2 2_3"/>
    </vehicle>
    <vehicle id="0.177" depart="578.79">
        <route edges="W3_7 7_8 8_5 5_2 2_N2"/>
    </vehicle>
    <vehicle id="0.178" depart="582.06">
        <route edges="W2_4 4_5 5_2 2_3 3_N3"/>
    </vehicle>
    <vehicle id="0.179" depart="585.33">
        <route edges="2_5 5_4"/>
    </vehicle>
    <vehicle id="0.180" depart="588.60">
        <route edges="E3_9 9_8 8_7 7_4 4_5"/>
    </vehicle>
    <vehicle id="0.181" depart="591.87">
        <route edges="8_9 9_8 8_5 5_8"/>
    </vehicle>
    <vehicle id="0.182" depart="595.14">
        <route edges="6_3 3_6 6_5"/>
    </vehicle>
    <vehicle id="0.183" depart="598.41">
        <route edges="5_2 2_5 5_8 8_7 7_S1"/>
    </vehicle>
    <vehicle id="0.184" depart="601.68">
        <route edges="1_2 2_3 3_6 6_9 9_8"/>
    </vehicle>
    <vehicle id="0.185" depart="604.95">
        <route edges="8_5 5_8 8_7 7_W3"/>
    </vehicle>
    <vehicle id="0.186" depart="608.22">
        <route edges="E3_9 9_8 8_7 7_8"/>
    </vehicle>
    <vehicle id="0.187" depart="611.49">
        <route edges="5_8 8_7 7_4 4_1 1_W1"/>
    </vehicle>
    <vehicle id="0.188" depart="614.76">
        <route edges="9_8 8_7 7_4 4_5"/>
    </vehicle>
    <vehicle id="0.189" depart="618.03">
        <route edges="5_6 6_9 9_8 8_9"/>
    </vehicle>
    <vehicle id="0.190" depart="621.30">
        <route edges="E2_6 6_5 5_4 4_5"/>
    </vehicle>
    <vehicle id="0.191" depart="624.57">
        <route edges="5_6 6_5 5_2"/>
    </vehicle>
    <vehicle id="0.192" depart="627.84">
        <route edges="6_5 5_4 4_1"/>
    </vehicle>
    <vehicle id="0.193" depart="631.11">
        <route edges="3_2 2_5 5_2"/>
    </vehicle>
    <vehicle id="0.194" depart="634.38">
        <route edges="W2_4 4_7 7_8"/>
    </vehicle>
    <vehicle id="0.195" depart="637.65">
        <route edges="S3_9 9_6 6_E2"/>
    </vehicle>
    <vehicle id="0.196" depart="640.92">
        <route edges="5_4 4_5 5_6 6_3"/>
    </vehicle>
    <vehicle id="0.197" depart="644.19">
        <route edges="1_2 2_5 5_4 4_1"/>
    </vehicle>
    <vehicle id="0.198" depart="647.46">
        <route edges="6_5"/>
    </vehicle>
    <vehicle id="0.199" depart="650.73">
        <route edges="9_8 8_5 5_6"/>
    </vehicle>
    <vehicle id="0.200" depart="654.00">
        <route edges="6_9 9_6 6_3 3_2"/>
    </vehicle>
    <vehicle id="0.201" depart="657.27">
        <route edges="7_8 8_9 9_6"/>
    </vehicle>
    <vehicle id="0.202" depart="660.54">
        <route edges="N2_2 2_N2"/>
    </vehicle>
    <vehicle id="0.203" depart="663.81">
        <route edges="2_5 5_8"/>
    </vehicle>
    <vehicle id="0.204" depart="667.08">
        <route edges="9_8 8_7 7_4 4_7"/>
    </vehicle>
    <vehicle id="0.205" depart="670.35">
        <route edges="N3_3 3_2 2_5 5_8 8_5"/>
    </vehicle>
    <vehicle id="0.206" depart="673.62">
        <route edges="E1_3 3_6"/>
    </vehicle>
    <vehicle id="0.207" depart="676.89">
        <route edges="4_5 5_4 4_1 1_4"/>
    </vehicle>
    <vehicle id="0.208" depart="680.16">
        <route edges="5_2 2_5 5_6"/>
    </vehicle>
    <vehicle id="0.209" depart="683.43">
        <route edges="S1_7 7_4 4_1 1_W1"/>
    </vehicle>
    <vehicle id="0.210" depart="686.70">
        <route edges="6_5 5_6 6_E2"/>
    </vehicle>
    <vehicle id="0.211" depart="689.97">
        <route edges="4_5 5_8 8_7 7_S1"/>
    </vehicle>
    <vehicle id="0.212" depart="693.24">
        <route edges="7_8 8_5 5_2 2_3 3_E1"/>
    </vehicle>
    <vehicle id="0.213" depart="696.51">
        <route edges="9_8 8_7 7_4 4_1 1_2"/>
    </vehicle>
    <vehicle id="0.214" depart="699.78">
        <route edges="E3_9 9_8 8_5"/>
    </vehicle>
    <vehicle id="0.215" depart="703.05">
        <route edges="2_5 5_4"/>
    </vehicle>
    <vehicle id="0.216" depart="706.32">
        <route edges="4_1 1_4 4_7 7_8 8_9 9_E3"/>
    </vehicle>
    <vehicle id="0.217" depart="709.59">
        <route edges="8_5 5_4 4_1 1_N1"/>
    </vehicle>
    <vehicle id="0.218" depart="712.86">
        <route edges="5_2 2_5 5_8 8_9"/>
    </vehicle>
    <vehicle id="0.219" depart="716.13">
        <route edges="7_4 4_5 5_8 8_7"/>
    </vehicle>
    <vehicle id="0.220" depart="719.40">
        <route edges="E1_3 3_6 6_9 9_S3"/>
    </vehicle>
    <vehicle id="0.221" depart="722.67">
        <route edges="8_9 9_E3"/>
    </vehicle>
    <vehicle id="0.222" depart="725.94">
        <route edges="S3_9 9_6 6_E2"/>
    </vehicle>
    <vehicle id="0.223" depart="729.21">
        <route edges="E2_6 6_5 5_8"/>
    </vehicle>
    <vehicle id="0.224" depart="732.48">
        <route edges="N3_3 3_6 6_3"/>
    </vehicle>
    <vehicle id="0.225" depart="735.75">
        <route edges="S3_9 9_8 8_7 7_W3"/>
    </vehicle>
    <vehicle id="0.226" depart="739.02">
        <route edges="7_8 8_5 5_2 2_3 3_N3"/>
    </vehicle>
    <vehicle id="0.227" depart="742.29">
        <route edges="5_2 2_3 3_6 6_E2"/>
    </vehicle>
    <vehicle id="0.228" depart="745.56">
        <route edges="N1_1 1_4 4_5 5_8"/>
    </vehicle>
    <vehicle id="0.229" depart="748.83">
        <route edges="9_6 6_3 3_N3"/>
    </vehicle>
    <vehicle id="0.230" depart="752.10">
        <route edges="2_3 3_2 2_5 5_4 4_1"/>
    </vehicle>
    <vehicle id="0.231" depart="755.37">
        <route edges="5_4 4_5"/>
    </vehicle>
    <vehicle id="0.232" depart="758.64">
        <route edges="8_5 5_2 2_5"/>
    </vehicle>
    <vehicle id="0.233" depart="761.91">
        <route edges="4_7 7_8"/>
    </vehicle>
    <vehicle id="0.234" depart="765.18">
        <route edges="E2_6 6_3 3_2 2_1 1_W1"/>
    </vehicle>
    <vehicle id="0.235" depart="768.45">
        <route edges="6_5 5_6 6_3"/>
    </vehicle>
    <vehicle id="0.236" depart="771.72">
        <route edges="6_5 5_2 2_3 3_2"/>
    </vehicle>
    <vehicle id="0.237" depart="774.99">
        <route edges="6_5 5_6 6_9 9_6"/>
    </vehicle>
    <vehicle id="0.238" depart="778.26">
        <route edges="8_9 9_8 8_7 7_S1"/>
    </vehicle>
    <vehicle id="0.239" depart="781.53">
        <route edges="S2_8 8_5"/>
    </vehicle>
    <vehicle id="0.240" depart="784.80">
        <route edges="6_3 3_2 2_1 1_2"/>
    </vehicle>
    <vehicle id="0.241" depart="788.07">
        <route edges="5_8 8_5"/>
    </vehicle>
    <vehicle id="0.242" depart="791.34">
        <route edges="S1_7 7_8 8_9 9_E3"/>
    </vehicle>
    <vehicle id="0.243" depart="794.61">
        <route edges="6_5 5_8 8_7 7_W3"/>
    </vehicle>
    <vehicle id="0.244" depart="797.88">
        <route edges="8_7 7_4 4_5 5_6 6_9"/>
    </vehicle>
    <vehicle id="0.245" depart="801.15">
        <route edges="4_7 7_4 4_5 5_2 2_3 3_6"/>
    </vehicle>
    <vehicle id="0.246" depart="804.42">
        <route edges="6_9 9_8 8_7 7_4 4_1 1_4"/>
    </vehicle>
    <vehicle id="0.247" depart="807.69">
        <route edges="5_6 6_5 5_8 8_7 7_8"/>
    </vehicle>
    <vehicle id="0.248" depart="810.96">
        <route edges="6_5 5_2 2_N2"/>
    </vehicle>
    <vehicle id="0.249" depart="814.23">
        <route edges="7_4 4_5 5_2 2_5"/>
    </vehicle>
    <vehicle id="0.250" depart="817.50">
        <route edges="9_6 6_5 5_4 4_1 1_4"/>
    </vehicle>
    <vehicle id="0.251" depart="820.77">
        <route edges="6_3 3_6 6_5"/>
    </vehicle>
    <vehicle id="0.252" depart="824.04">
        <route edges="1_4 4_7 7_4"/>
    </vehicle>
    <vehicle id="0.253" depart="827.31">
        <route edges="3_2 2_5 5_6"/>
    </vehicle>
    <vehicle id="0.254" depart="830.58">
        <route edges="2_1 1_4 4_W2"/>
    </vehicle>
    <vehicle id="0.255" depart="833.85">
        <route edges="4_5"/>
    </vehicle>
    <vehicle id="0.256" depart="837.12">
        <route edges="N1_1 1_4 4_W2"/>
    </vehicle>
    <vehicle id="0.257" depart="840.39">
        <route edges="E3_9 9_8 8_9"/>
    </vehicle>
    <vehicle id="0.258" depart="843.66">
        <route edges="5_2 2_1 1_W1"/>
    </vehicle>
    <vehicle id="0.259" depart="846.93">
        <route edges="1_2 2_3 3_6 6_3"/>
    </vehicle>
    <vehicle id="0.260" depart="850.20">
        <route edges="W3_7 7_4 4_7"/>
    </vehicle>
    <vehicle id="0.261" depart="853.47">
        <route edges="9_8 8_5"/>
    </vehicle>
    <vehicle id="0.262" depart="856.74">
        <route edges="9_8 8_5"/>
    </vehicle>
    <vehicle id="0.263" depart="860.01">
        <route edges="W2_4 4_5 5_2 2_3 3_2"/>
    </vehicle>
    <vehicle id="0.264" depart="863.28">
        <route edges="1_2 2_5"/>
    </vehicle>
    <vehicle id="0.265" depart="866.55">
        <route edges="3_2 2_5 5_8 8_7 7_8"/>
    </vehicle>
    <vehicle id="0.266" depart="869.82">
        <route edges="8_7 7_4 4_5 5_2 2_3 3_6"/>
    </vehicle>
    <vehicle id="0.267" depart="873.09">
        <route edges="E2_6 6_5 5_8 8_5"/>
    </vehicle>
    <vehicle id="0.268" depart="876.36">
        <route edges="4_1 1_2 2_3 3_6 6_E2"/>
    </vehicle>
    <vehicle id="0.269" depart="879.63">
        <route edges="E3_9 9_6 6_3 3_2 2_3"/>
    </vehicle>
    <vehicle id="0.270" depart="882.90">
        <route edges="N3_3 3_6 6_9 9_E3"/>
    </vehicle>
    <vehicle id="0.271" depart="886.17">
        <route edges="2_5 5_4 4_1 1_4"/>
    </vehicle>
    <vehicle id="0.272" depart="889.44">
        <route edges="5_6 6_5 5_8 8_7 7_8"/>
    </vehicle>
    <vehicle id="0.273" depart="892.71">
        <route edges="W2_4 4_5 5_2"/>
    </vehicle>
    <vehicle id="0.274" depart="895.98">
        <route edges="E2_6 6_3 3_2 2_1 1_W1"/>
    </vehicle>
    <vehicle id="0.275" depart="899.25">
        <route edges="E2_6 6_E2"/>
    </vehicle>
    <vehicle id="0.276" depart="902.52">
        <route edges="2_5 5_8 8_5"/>
    </vehicle>
    <vehicle id="0.277" depart="905.79">
        <route edges="S1_7 7_8 8_5 5_6 6_9"/>
    </vehicle>
    <vehicle id="0.278" depart="909.06">
        <route edges="3_2 2_3 3_6 6_9 9_S3"/>
    </vehicle>
    <vehicle id="0.279" depart="912.33">
        <route edges="N2_2 2_5 5_4 4_7"/>
    </vehicle>
    <vehicle id="0.280" depart="915.60">
        <route edges="6_5 5_4 4_W2"/>
    </vehicle>
    <vehicle id="0.281" depart="918.87">
        <route edges="7_8 8_7 7_4 4_7"/>
    </vehicle>
    <vehicle id="0.282" depart="922.14">
        <route edges="S1_7 7_8 8_9"/>
    </vehicle>
    <vehicle id="0.283" depart="925.41">
        <route edges="2_5 5_8 8_9 9_E3"/>
    </vehicle>
    <vehicle id="0.284" depart="928.68">
        <route edges="9_8 8_9"/>
    </vehicle>
    <vehicle id="0.285" depart="931.95">
        <route edges="E2_6 6_5 5_4"/>
    </vehicle>
    <vehicle id="0.286" depart="935.22">
        <route edges="E3_9 9_E3"/>
    </vehicle>
    <vehicle id="0.287" depart="938.49">
        <route edges="5_2 2_5 5_8 8_7"/>
    </vehicle>
    <vehicle id="0.288" depart="941.76">
        <route edges="8_5 5_6"/>
    </vehicle>
    <vehicle id="0.289" depart="945.03">
        <route edges="6_9 9_8 8_7 7_W3"/>
    </vehicle>
    <vehicle id="0.290" depart="948.30">
        <route edges="5_2 2_5 5_8 8_9"/>
    </vehicle>
    <vehicle id="0.291" depart="951.57">
        <route edges="N3_3 3_2 2_1"/>
    </vehicle>
    <vehicle id="0.292" depart="954.84">
        <route edges="S2_8 8_5 5_2 2_3 3_E1"/>
    </vehicle>
    <vehicle id="0.293" depart="958.11">
        <route edges="7_4 4_5 5_6 6_E2"/>
    </vehicle>
    <vehicle id="0.294" depart="961.38">
        <route edges="6_3 3_2 2_1 1_4"/>
    </vehicle>
    <vehicle id="0.295" depart="964.65">
        <route edges="S1_7 7_8 8_5 5_2 2_N2"/>
    </vehicle>
    <vehicle id="0.296" depart="967.92">
        <route edges="4_5 5_8 8_7"/>
    </vehicle>
    <vehicle id="0.297" depart="971.19">
        <route edges="5_8 8_S2"/>
    </vehicle>
    <vehicle id="0.298" depart="974.46">
        <route edges="E2_6 6_3 3_N3"/>
    </vehicle>
    <vehicle id="0.299" depart="977.73">
        <route edges="1_2 2_3 3_6 6_9 9_E3"/>
    </vehicle>
    <vehicle id="0.300" depart="981.00">
        <route edges="2_5 5_8 8_7 7_W3"/>
    </vehicle>
    <vehicle id="0.301" depart="984.27">
        <route edges="7_8 8_5"/>
    </vehicle>
    <vehicle id="0.302" depart="987.54">
        <route edges="E2_6 6_5 5_8 8_7 7_4"/>
    </vehicle>
    <vehicle id="0.303" depart="990.81">
        <route edges="7_8 8_7"/>
    </vehicle>
    <vehicle id="0.304" depart="994.08">
        <route edges="2_5 5_2 2_3 3_6"/>
    </vehicle>