<?xml version="1.0" encoding="UTF-8"?>

<!-- generated on 2022-07-22 10:22:45 by Eclipse SUMO netedit Version 1.10.0
<configuration xmlns:xsi="http://www.w3.org/2001/XMLSchema-instance" xsi:noNamespaceSchemaLocation="http://sumo.dlr.de/xsd/netconvertConfiguration.xsd">

    <input>
        <sumo-net-file value="D:\coding\drl_traffic_signal_control\res\3_3tlsp.net.xml"/>
    </input>

    <output>
        <output-file value="D:\coding\drl_traffic_signal_control\res\3_3tlsp.net.xml"/>
    </output>

    <processing>
        <geometry.min-radius.fix.railways value="false"/>
        <geometry.max-grade.fix value="false"/>
        <offset.disable-normalization value="true"/>
        <lefthand value="false"/>
    </processing>

    <junctions>
        <no-turnarounds value="true"/>
        <junctions.corner-detail value="5"/>
        <junctions.limit-turn-speed value="5.5"/>
        <rectangular-lane-cut value="false"/>
    </junctions>

    <pedestrian>
        <walkingareas value="false"/>
    </pedestrian>

    <report>
        <aggregate-warnings value="5"/>
    </report>

</configuration>
-->

<net version="1.9" junctionCornerDetail="5" limitTurnSpeed="5.50" xmlns:xsi="http://www.w3.org/2001/XMLSchema-instance" xsi:noNamespaceSchemaLocation="http://sumo.dlr.de/xsd/net_file.xsd">

    <location netOffset="0.00,0.00" convBoundary="-224.56,-328.35,1059.00,880.42" origBoundary="-10000000000.00,-10000000000.00,10000000000.00,10000000000.00" projParameter="!"/>

    <edge id=":node1_0" function="internal">
        <lane id=":node1_0_0" index="0" speed="6.88" length="9.79" shape="10.07,539.18 7.27,539.04 5.08,539.73 3.52,541.24 2.57,543.57"/>
    </edge>
    <edge id=":node1_1" function="internal">
        <lane id=":node1_1_0" index="0" speed="13.89" length="28.57" shape="10.63,536.03 2.28,534.53 -3.41,533.36 -9.04,531.96 -17.22,529.72"/>
    </edge>
    <edge id=":node1_2" function="internal">
        <lane id=":node1_2_0" index="0" speed="10.37" length="13.56" shape="11.19,532.88 4.69,530.72 0.51,526.96 0.16,525.92"/>
    </edge>
    <edge id=":node1_3" function="internal">
        <lane id=":node1_3_0" index="0" speed="3.65" length="2.34" shape="11.19,532.88 10.14,531.88 9.89,531.02"/>
    </edge>
    <edge id=":node1_16" function="internal">
        <lane id=":node1_16_0" index="0" speed="10.37" length="11.57" shape="0.16,525.92 -1.34,521.59 -0.88,514.62"/>
    </edge>
    <edge id=":node1_17" function="internal">
        <lane id=":node1_17_0" index="0" speed="3.65" length="2.34" shape="9.89,531.02 10.42,530.30 11.74,529.72"/>
    </edge>
    <edge id=":node1_4" function="internal">
        <lane id=":node1_4_0" index="0" speed="6.53" length="9.31" shape="8.52,516.57 8.33,519.20 8.99,521.22 10.50,522.63 12.86,523.42"/>
    </edge>
    <edge id=":node1_5" function="internal">
        <lane id=":node1_5_0" index="0" speed="13.89" length="27.57" shape="5.38,515.92 -0.55,542.84"/>
    </edge>
    <edge id=":node1_6" function="internal">
        <lane id=":node1_6_0" index="0" speed="10.27" length="13.72" shape="2.25,515.27 -0.13,521.83 -4.03,525.91 -5.08,526.22"/>
    </edge>
    <edge id=":node1_7" function="internal">
        <lane id=":node1_7_0" index="0" speed="3.65" length="2.34" shape="2.25,515.27 1.22,516.28 0.36,516.51"/>
    </edge>
    <edge id=":node1_18" function="internal">
        <lane id=":node1_18_0" index="0" speed="10.27" length="11.53" shape="-5.08,526.22 -9.44,527.51 -16.37,526.63"/>
    </edge>
    <edge id=":node1_19" function="internal">
        <lane id=":node1_19_0" index="0" speed="3.65" length="2.34" shape="0.36,516.51 -0.34,515.95 -0.88,514.62"/>
    </edge>
    <edge id=":node1_8" function="internal">
        <lane id=":node1_8_0" index="0" speed="6.37" length="9.04" shape="-13.81,517.38 -11.33,517.69 -9.40,517.12 -8.00,515.66 -7.15,513.31"/>
    </edge>
    <edge id=":node1_9" function="internal">
        <lane id=":node1_9_0" index="0" speed="13.89" length="27.67" shape="-14.66,520.46 -6.74,522.63 -1.29,524.00 4.22,525.12 12.30,526.57"/>
    </edge>
    <edge id=":node1_10" function="internal">
        <lane id=":node1_10_0" index="0" speed="10.60" length="13.95" shape="-15.52,523.55 -9.07,526.28 -4.95,530.29 -4.56,531.43"/>
    </edge>
    <edge id=":node1_11" function="internal">
        <lane id=":node1_11_0" index="0" speed="3.65" length="2.34" shape="-15.52,523.55 -14.57,524.64 -14.40,525.51"/>
    </edge>
    <edge id=":node1_20" function="internal">
        <lane id=":node1_20_0" index="0" speed="10.60" length="10.95" shape="-4.56,531.43 -3.15,535.57 -3.66,542.12"/>
    </edge>
    <edge id=":node1_21" function="internal">
        <lane id=":node1_21_0" index="0" speed="3.65" length="2.34" shape="-14.40,525.51 -15.00,526.18 -16.37,526.63"/>
    </edge>
    <edge id=":node1_12" function="internal">
        <lane id=":node1_12_0" index="0" speed="6.87" length="9.87" shape="-13.01,539.94 -12.86,537.47 -13.65,535.46 -15.39,533.90 -18.07,532.80"/>
    </edge>
    <edge id=":node1_13" function="internal">
        <lane id=":node1_13_0" index="0" speed="13.89" length="27.34" shape="-9.90,540.66 -4.02,513.96"/>
    </edge>
    <edge id=":node1_14" function="internal">
        <lane id=":node1_14_0" index="0" speed="10.61" length="13.09" shape="-6.78,541.39 -4.37,535.28 -0.48,531.30 0.43,530.99"/>
    </edge>
    <edge id=":node1_15" function="internal">
        <lane id=":node1_15_0" index="0" speed="3.65" length="2.34" shape="-6.78,541.39 -5.73,540.40 -4.86,540.20"/>
    </edge>
    <edge id=":node1_22" function="internal">
        <lane id=":node1_22_0" index="0" speed="10.61" length="11.58" shape="0.43,530.99 4.89,529.45 11.74,529.72"/>
    </edge>
    <edge id=":node1_23" function="internal">
        <lane id=":node1_23_0" index="0" speed="3.65" length="2.34" shape="-4.86,540.20 -4.17,540.77 -3.66,542.12"/>
    </edge>
    <edge id=":node2_0" function="internal">
        <lane id=":node2_0_0" index="0" speed="8.67" length="14.61" shape="391.99,615.29 391.45,611.44 389.84,608.47 387.16,606.39 383.40,605.19"/>
    </edge>
    <edge id=":node2_1" function="internal">
        <lane id=":node2_1_0" index="0" speed="13.89" length="30.74" shape="395.19,615.29 395.20,584.55"/>
    </edge>
    <edge id=":node2_2" function="internal">
        <lane id=":node2_2_0" index="0" speed="10.16" length="13.82" shape="398.39,615.29 399.45,607.95 402.64,603.11 403.19,602.86"/>
    </edge>
    <edge id=":node2_3" function="internal">
        <lane id=":node2_3_0" index="0" speed="3.65" length="2.34" shape="398.39,615.29 399.19,614.09 399.99,613.69"/>
    </edge>
    <edge id=":node2_16" function="internal">
        <lane id=":node2_16_0" index="0" speed="10.16" length="12.61" shape="403.19,602.86 407.93,600.75 415.35,600.90"/>
    </edge>
    <edge id=":node2_17" function="internal">
        <lane id=":node2_17_0" index="0" speed="3.65" length="2.34" shape="399.99,613.69 400.79,614.09 401.59,615.29"/>
    </edge>
    <edge id=":node2_4" function="internal">
        <lane id=":node2_4_0" index="0" speed="6.18" length="9.05" shape="413.80,610.37 411.26,610.32 409.44,611.13 408.35,612.79 407.99,615.30"/>
    </edge>
    <edge id=":node2_5" function="internal">
        <lane id=":node2_5_0" index="0" speed="13.89" length="30.80" shape="414.31,607.21 383.95,602.04"/>
    </edge>
    <edge id=":node2_6" function="internal">
        <lane id=":node2_6_0" index="0" speed="11.81" length="14.96" shape="414.83,604.05 407.64,601.82 402.51,597.83 402.07,597.01"/>
    </edge>
    <edge id=":node2_7" function="internal">
        <lane id=":node2_7_0" index="0" speed="3.65" length="2.34" shape="414.83,604.05 413.78,603.07 413.51,602.22"/>
    </edge>
    <edge id=":node2_18" function="internal">
        <lane id=":node2_18_0" index="0" speed="11.81" length="13.19" shape="402.07,597.01 399.43,592.07 398.40,584.55"/>
    </edge>
    <edge id=":node2_19" function="internal">
        <lane id=":node2_19_0" index="0" speed="3.65" length="2.34" shape="413.51,602.22 414.04,601.49 415.35,600.90"/>
    </edge>
    <edge id=":node2_8" function="internal">
        <lane id=":node2_8_0" index="0" speed="8.58" length="14.43" shape="408.00,584.55 408.52,588.42 410.10,591.39 412.72,593.44 416.39,594.58"/>
    </edge>
    <edge id=":node2_9" function="internal">
        <lane id=":node2_9_0" index="0" speed="13.89" length="30.74" shape="404.80,584.55 404.79,615.30"/>
    </edge>
    <edge id=":node2_10" function="internal">
        <lane id=":node2_10_0" index="0" speed="10.15" length="13.88" shape="401.60,584.55 400.53,591.96 397.33,596.81 396.79,597.04"/>
    </edge>
    <edge id=":node2_11" function="internal">
        <lane id=":node2_11_0" index="0" speed="3.65" length="2.34" shape="401.60,584.55 400.80,585.75 400.00,586.15"/>
    </edge>
    <edge id=":node2_20" function="internal">
        <lane id=":node2_20_0" index="0" speed="10.15" length="12.72" shape="396.79,597.04 391.99,599.12 384.51,598.89"/>
    </edge>
    <edge id=":node2_21" function="internal">
        <lane id=":node2_21_0" index="0" speed="3.65" length="2.34" shape="400.00,586.15 399.20,585.75 398.40,584.55"/>
    </edge>
    <edge id=":node2_12" function="internal">
        <lane id=":node2_12_0" index="0" speed="6.16" length="9.05" shape="386.18,589.43 388.73,589.51 390.55,588.73 391.64,587.07 392.00,584.55"/>
    </edge>
    <edge id=":node2_13" function="internal">
        <lane id=":node2_13_0" index="0" speed="13.89" length="30.68" shape="385.63,592.58 415.87,597.74"/>
    </edge>
    <edge id=":node2_14" function="internal">
        <lane id=":node2_14_0" index="0" speed="11.88" length="14.94" shape="385.07,595.73 392.30,598.05 397.46,602.09 397.84,602.78"/>
    </edge>
    <edge id=":node2_15" function="internal">
        <lane id=":node2_15_0" index="0" speed="3.65" length="2.34" shape="385.07,595.73 386.11,596.73 386.37,597.59"/>
    </edge>
    <edge id=":node2_22" function="internal">
        <lane id=":node2_22_0" index="0" speed="11.88" length="13.27" shape="397.84,602.78 400.56,607.83 401.59,615.29"/>
    </edge>
    <edge id=":node2_23" function="internal">
        <lane id=":node2_23_0" index="0" speed="3.65" length="2.34" shape="386.37,597.59 385.83,598.31 384.51,598.89"/>
    </edge>
    <edge id=":node3_0" function="internal">
        <lane id=":node3_0_0" index="0" speed="7.27" length="11.02" shape="727.46,662.21 724.53,662.08 722.20,662.95 720.46,664.80 719.33,667.64"/>
    </edge>
    <edge id=":node3_1" function="internal">
        <lane id=":node3_1_0" index="0" speed="13.89" length="28.44" shape="728.06,659.06 700.06,654.09"/>
    </edge>
    <edge id=":node3_2" function="internal">
        <lane id=":node3_2_0" index="0" speed="10.29" length="13.35" shape="728.66,655.92 722.10,653.66 717.96,649.85 717.72,649.10"/>
    </edge>
    <edge id=":node3_3" function="internal">
        <lane id=":node3_3_0" index="0" speed="3.65" length="2.34" shape="728.66,655.92 727.64,654.91 727.39,654.05"/>
    </edge>
    <edge id=":node3_16" function="internal">
        <lane id=":node3_16_0" index="0" speed="10.29" length="11.79" shape="717.72,649.10 716.24,644.49 716.94,637.58"/>
    </edge>
    <edge id=":node3_17" function="internal">
        <lane id=":node3_17_0" index="0" speed="3.65" length="2.34" shape="727.39,654.05 727.94,653.34 729.27,652.78"/>
    </edge>
    <edge id=":node3_4" function="internal">
        <lane id=":node3_4_0" index="0" speed="6.39" length="9.04" shape="726.26,639.90 726.00,642.38 726.62,644.31 728.11,645.68 730.47,646.49"/>
    </edge>
    <edge id=":node3_5" function="internal">
        <lane id=":node3_5_0" index="0" speed="13.89" length="28.58" shape="723.15,639.13 716.22,666.86"/>
    </edge>
    <edge id=":node3_6" function="internal">
        <lane id=":node3_6_0" index="0" speed="10.99" length="13.93" shape="720.05,638.36 717.42,644.82 713.29,649.08 712.33,649.42"/>
    </edge>
    <edge id=":node3_7" function="internal">
        <lane id=":node3_7_0" index="0" speed="3.65" length="2.34" shape="720.05,638.36 718.98,639.33 718.11,639.52"/>
    </edge>
    <edge id=":node3_18" function="internal">
        <lane id=":node3_18_0" index="0" speed="10.99" length="12.05" shape="712.33,649.42 707.68,651.11 700.58,650.93"/>
    </edge>
    <edge id=":node3_19" function="internal">
        <lane id=":node3_19_0" index="0" speed="3.65" length="2.34" shape="718.11,639.52 717.43,638.94 716.94,637.58"/>
    </edge>
    <edge id=":node3_8" function="internal">
        <lane id=":node3_8_0" index="0" speed="7.45" length="11.39" shape="702.13,641.46 705.28,641.55 707.76,640.68 709.58,638.84 710.73,636.04"/>
    </edge>
    <edge id=":node3_9" function="internal">
        <lane id=":node3_9_0" index="0" speed="13.89" length="28.70" shape="701.61,644.62 729.87,649.64"/>
    </edge>
    <edge id=":node3_10" function="internal">
        <lane id=":node3_10_0" index="0" speed="10.25" length="13.79" shape="701.09,647.77 707.83,649.90 712.08,653.66 712.41,654.66"/>
    </edge>
    <edge id=":node3_11" function="internal">
        <lane id=":node3_11_0" index="0" speed="3.65" length="2.34" shape="701.09,647.77 702.15,648.76 702.41,649.61"/>
    </edge>
    <edge id=":node3_20" function="internal">
        <lane id=":node3_20_0" index="0" speed="10.25" length="11.69" shape="712.41,654.66 713.84,659.05 713.12,666.08"/>
    </edge>
    <edge id=":node3_21" function="internal">
        <lane id=":node3_21_0" index="0" speed="3.65" length="2.34" shape="702.41,649.61 701.89,650.34 700.58,650.93"/>
    </edge>
    <edge id=":node3_12" function="internal">
        <lane id=":node3_12_0" index="0" speed="6.33" length="9.04" shape="703.81,663.74 704.06,661.25 703.44,659.34 701.93,658.00 699.54,657.25"/>
    </edge>
    <edge id=":node3_13" function="internal">
        <lane id=":node3_13_0" index="0" speed="13.89" length="28.56" shape="706.91,664.52 713.83,636.81"/>
    </edge>
    <edge id=":node3_14" function="internal">
        <lane id=":node3_14_0" index="0" speed="10.86" length="14.08" shape="710.01,665.30 712.67,658.72 716.77,654.44 717.77,654.08"/>
    </edge>
    <edge id=":node3_15" function="internal">
        <lane id=":node3_15_0" index="0" speed="3.65" length="2.34" shape="710.01,665.30 711.08,664.33 711.96,664.14"/>
    </edge>
    <edge id=":node3_22" function="internal">
        <lane id=":node3_22_0" index="0" speed="10.86" length="11.79" shape="717.77,654.08 722.30,652.46 729.27,652.78"/>
    </edge>
    <edge id=":node3_23" function="internal">
        <lane id=":node3_23_0" index="0" speed="3.65" length="2.34" shape="711.96,664.14 712.63,664.72 713.12,666.08"/>
    </edge>
    <edge id=":node4_0" function="internal">
        <lane id=":node4_0_0" index="0" speed="7.15" length="10.47" shape="86.90,167.88 84.37,168.00 82.36,169.07 80.86,171.10 79.88,174.08"/>
    </edge>
    <edge id=":node4_1" function="internal">
        <lane id=":node4_1_0" index="0" speed="13.89" length="27.45" shape="87.31,164.71 60.07,161.33"/>
    </edge>
    <edge id=":node4_2" function="internal">
        <lane id=":node4_2_0" index="0" speed="10.65" length="13.04" shape="87.72,161.53 81.47,159.75 77.16,156.25 76.75,155.34"/>
    </edge>
    <edge id=":node4_3" function="internal">
        <lane id=":node4_3_0" index="0" speed="3.65" length="2.34" shape="87.72,161.53 86.63,160.59 86.33,159.74"/>
    </edge>
    <edge id=":node4_16" function="internal">
        <lane id=":node4_16_0" index="0" speed="10.65" length="11.69" shape="76.75,155.34 74.78,151.03 74.33,144.09"/>
    </edge>
    <edge id=":node4_17" function="internal">
        <lane id=":node4_17_0" index="0" speed="3.65" length="2.34" shape="86.33,159.74 86.83,159.00 88.12,158.36"/>
    </edge>
    <edge id=":node4_4" function="internal">
        <lane id=":node4_4_0" index="0" speed="6.95" length="9.95" shape="83.91,144.72 84.06,147.65 84.95,149.84 86.58,151.29 88.94,152.01"/>
    </edge>
    <edge id=":node4_5" function="internal">
        <lane id=":node4_5_0" index="0" speed="13.89" length="29.24" shape="80.72,144.51 80.11,153.16 79.49,159.07 78.49,164.93 76.75,173.43"/>
    </edge>
    <edge id=":node4_6" function="internal">
        <lane id=":node4_6_0" index="0" speed="10.34" length="13.68" shape="77.53,144.30 76.07,151.08 72.74,155.65 71.75,156.10"/>
    </edge>
    <edge id=":node4_7" function="internal">
        <lane id=":node4_7_0" index="0" speed="3.65" length="2.34" shape="77.53,144.30 76.65,145.44 75.82,145.79"/>
    </edge>
    <edge id=":node4_18" function="internal">
        <lane id=":node4_18_0" index="0" speed="10.34" length="11.72" shape="71.75,156.10 67.53,158.01 60.45,158.15"/>
    </edge>
    <edge id=":node4_19" function="internal">
        <lane id=":node4_19_0" index="0" speed="3.65" length="2.34" shape="75.82,145.79 75.05,145.34 74.33,144.09"/>
    </edge>
    <edge id=":node4_8" function="internal">
        <lane id=":node4_8_0" index="0" speed="6.48" length="9.30" shape="61.60,148.62 64.23,148.58 66.17,147.74 67.41,146.10 67.95,143.66"/>
    </edge>
    <edge id=":node4_9" function="internal">
        <lane id=":node4_9_0" index="0" speed="13.89" length="27.53" shape="61.21,151.80 88.53,155.19"/>
    </edge>
    <edge id=":node4_10" function="internal">
        <lane id=":node4_10_0" index="0" speed="10.25" length="13.67" shape="60.83,154.98 67.66,156.81 72.07,160.39 72.39,161.25"/>
    </edge>
    <edge id=":node4_11" function="internal">
        <lane id=":node4_11_0" index="0" speed="3.65" length="2.34" shape="60.83,154.98 61.93,155.91 62.23,156.76"/>
    </edge>
    <edge id=":node4_20" function="internal">
        <lane id=":node4_20_0" index="0" speed="10.25" length="11.84" shape="72.39,161.25 74.06,165.71 73.62,172.77"/>
    </edge>
    <edge id=":node4_21" function="internal">
        <lane id=":node4_21_0" index="0" speed="3.65" length="2.34" shape="62.23,156.76 61.74,157.50 60.45,158.15"/>
    </edge>
    <edge id=":node4_12" function="internal">
        <lane id=":node4_12_0" index="0" speed="6.33" length="9.04" shape="64.22,170.82 64.37,168.31 63.67,166.43 62.11,165.16 59.69,164.51"/>
    </edge>
    <edge id=":node4_13" function="internal">
        <lane id=":node4_13_0" index="0" speed="13.89" length="27.89" shape="67.35,171.47 69.01,163.36 69.97,157.77 70.56,152.13 71.14,143.88"/>
    </edge>
    <edge id=":node4_14" function="internal">
        <lane id=":node4_14_0" index="0" speed="10.79" length="14.20" shape="70.48,172.12 72.81,165.41 76.52,160.88 77.65,160.36"/>
    </edge>
    <edge id=":node4_15" function="internal">
        <lane id=":node4_15_0" index="0" speed="3.65" length="2.34" shape="70.48,172.12 71.51,171.11 72.38,170.88"/>
    </edge>
    <edge id=":node4_22" function="internal">
        <lane id=":node4_22_0" index="0" speed="10.79" length="10.88" shape="77.65,160.36 81.62,158.53 88.12,158.36"/>
    </edge>
    <edge id=":node4_23" function="internal">
        <lane id=":node4_23_0" index="0" speed="3.65" length="2.34" shape="72.38,170.88 73.08,171.44 73.62,172.77"/>
    </edge>
    <edge id=":node5_0" function="internal">
        <lane id=":node5_0_0" index="0" speed="8.35" length="14.04" shape="392.00,215.99 391.51,212.01 390.05,209.03 387.61,207.03 384.19,206.04"/>
    </edge>
    <edge id=":node5_1" function="internal">
        <lane id=":node5_1_0" index="0" speed="13.89" length="30.90" shape="395.20,215.99 395.20,185.09"/>
    </edge>
    <edge id=":node5_2" function="internal">
        <lane id=":node5_2_0" index="0" speed="10.11" length="14.03" shape="398.40,215.99 399.50,208.36 402.79,203.48 403.20,203.32"/>
    </edge>
    <edge id=":node5_3" function="internal">
        <lane id=":node5_3_0" index="0" speed="3.65" length="2.34" shape="398.40,215.99 399.20,214.79 400.00,214.39"/>
    </edge>
    <edge id=":node5_16" function="internal">
        <lane id=":node5_16_0" index="0" speed="10.11" length="13.15" shape="403.20,203.32 408.27,201.34 415.95,201.93"/>
    </edge>
    <edge id=":node5_17" function="internal">
        <lane id=":node5_17_0" index="0" speed="3.65" length="2.34" shape="400.00,214.39 400.80,214.79 401.60,215.99"/>
    </edge>
    <edge id=":node5_4" function="internal">
        <lane id=":node5_4_0" index="0" speed="6.08" length="9.06" shape="413.85,211.30 411.29,211.10 409.46,211.82 408.37,213.44 408.00,215.99"/>
    </edge>
    <edge id=":node5_5" function="internal">
        <lane id=":node5_5_0" index="0" speed="13.89" length="30.44" shape="414.55,208.18 405.79,206.23 399.67,205.01 393.50,204.04 384.60,202.86"/>
    </edge>
    <edge id=":node5_6" function="internal">
        <lane id=":node5_6_0" index="0" speed="12.19" length="15.51" shape="415.25,205.05 407.88,202.39 402.61,198.18 402.17,197.36"/>
    </edge>
    <edge id=":node5_7" function="internal">
        <lane id=":node5_7_0" index="0" speed="3.65" length="2.34" shape="415.25,205.05 414.25,204.01 414.04,203.14"/>
    </edge>
    <edge id=":node5_18" function="internal">
        <lane id=":node5_18_0" index="0" speed="12.19" length="13.04" shape="402.17,197.36 399.45,192.41 398.40,185.09"/>
    </edge>
    <edge id=":node5_19" function="internal">
        <lane id=":node5_19_0" index="0" speed="3.65" length="2.34" shape="414.04,203.14 414.60,202.45 415.95,201.93"/>
    </edge>
    <edge id=":node5_8" function="internal">
        <lane id=":node5_8_0" index="0" speed="9.08" length="15.44" shape="408.00,185.09 408.58,188.94 410.34,191.99 413.26,194.24 417.35,195.69"/>
    </edge>
    <edge id=":node5_9" function="internal">
        <lane id=":node5_9_0" index="0" speed="13.89" length="30.90" shape="404.80,185.09 404.80,215.99"/>
    </edge>
    <edge id=":node5_10" function="internal">
        <lane id=":node5_10_0" index="0" speed="10.20" length="13.73" shape="401.60,185.09 400.56,192.28 397.45,197.10 396.80,197.41"/>
    </edge>
    <edge id=":node5_11" function="internal">
        <lane id=":node5_11_0" index="0" speed="3.65" length="2.34" shape="401.60,185.09 400.80,186.29 400.00,186.69"/>
    </edge>
    <edge id=":node5_20" function="internal">
        <lane id=":node5_20_0" index="0" speed="10.20" length="12.28" shape="396.80,197.41 392.27,199.58 385.01,199.69"/>
    </edge>
    <edge id=":node5_21" function="internal">
        <lane id=":node5_21_0" index="0" speed="3.65" length="2.34" shape="400.00,186.69 399.20,186.29 398.40,185.09"/>
    </edge>
    <edge id=":node5_12" function="internal">
        <lane id=":node5_12_0" index="0" speed="6.25" length="9.05" shape="386.23,190.17 388.75,190.13 390.56,189.27 391.64,187.59 392.00,185.09"/>
    </edge>
    <edge id=":node5_13" function="internal">
        <lane id=":node5_13_0" index="0" speed="13.89" length="31.33" shape="385.82,193.34 394.86,194.54 401.33,195.56 407.75,196.84 416.65,198.81"/>
    </edge>
    <edge id=":node5_14" function="internal">
        <lane id=":node5_14_0" index="0" speed="11.63" length="14.53" shape="385.41,196.51 392.50,198.51 397.55,202.42 397.91,203.11"/>
    </edge>
    <edge id=":node5_15" function="internal">
        <lane id=":node5_15_0" index="0" speed="3.65" length="2.34" shape="385.41,196.51 386.50,197.46 386.80,198.31"/>
    </edge>
    <edge id=":node5_22" function="internal">
        <lane id=":node5_22_0" index="0" speed="11.63" length="13.60" shape="397.91,203.11 400.59,208.25 401.60,215.99"/>
    </edge>
    <edge id=":node5_23" function="internal">
        <lane id=":node5_23_0" index="0" speed="3.65" length="2.34" shape="386.80,198.31 386.30,199.05 385.01,199.69"/>
    </edge>
    <edge id=":node6_0" function="internal">
        <lane id=":node6_0_0" index="0" speed="7.55" length="11.09" shape="817.24,299.85 814.40,300.02 812.13,301.09 810.44,303.09 809.32,306.00"/>
    </edge>
    <edge id=":node6_1" function="internal">
        <lane id=":node6_1_0" index="0" speed="13.89" length="29.16" shape="817.54,296.67 808.93,295.80 803.06,295.00 797.24,293.85 788.80,291.97"/>
    </edge>
    <edge id=":node6_2" function="internal">
        <lane id=":node6_2_0" index="0" speed="10.82" length="13.14" shape="817.84,293.48 811.50,291.82 807.08,288.21 806.72,287.42"/>
    </edge>
    <edge id=":node6_3" function="internal">
        <lane id=":node6_3_0" index="0" speed="3.65" length="2.34" shape="817.84,293.48 816.72,292.57 816.40,291.74"/>
    </edge>
    <edge id=":node6_16" function="internal">
        <lane id=":node6_16_0" index="0" speed="10.82" length="12.72" shape="806.72,287.42 804.59,282.66 804.03,275.17"/>
    </edge>
    <edge id=":node6_17" function="internal">
        <lane id=":node6_17_0" index="0" speed="3.65" length="2.34" shape="816.40,291.74 816.88,290.98 818.15,290.30"/>
    </edge>
    <edge id=":node6_4" function="internal">
        <lane id=":node6_4_0" index="0" speed="7.21" length="10.93" shape="813.62,275.63 813.80,279.06 814.71,281.59 816.36,283.21 818.75,283.92"/>
    </edge>
    <edge id=":node6_5" function="internal">
        <lane id=":node6_5_0" index="0" speed="13.89" length="30.14" shape="810.42,275.48 809.97,284.40 809.40,290.51 808.29,296.55 806.21,305.23"/>
    </edge>
    <edge id=":node6_6" function="internal">
        <lane id=":node6_6_0" index="0" speed="10.15" length="14.09" shape="807.22,275.33 805.81,282.66 802.38,287.36 801.63,287.64"/>
    </edge>
    <edge id=":node6_7" function="internal">
        <lane id=":node6_7_0" index="0" speed="3.65" length="2.34" shape="807.22,275.33 806.37,276.49 805.55,276.85"/>
    </edge>
    <edge id=":node6_18" function="internal">
        <lane id=":node6_18_0" index="0" speed="10.15" length="12.48" shape="801.63,287.64 796.94,289.42 789.50,288.84"/>
    </edge>
    <edge id=":node6_19" function="internal">
        <lane id=":node6_19_0" index="0" speed="3.65" length="2.34" shape="805.55,276.85 804.77,276.41 804.03,275.17"/>
    </edge>
    <edge id=":node6_8" function="internal">
        <lane id=":node6_8_0" index="0" speed="6.17" length="9.05" shape="791.59,279.47 794.13,279.67 795.98,278.97 797.15,277.37 797.63,274.87"/>
    </edge>
    <edge id=":node6_9" function="internal">
        <lane id=":node6_9_0" index="0" speed="13.89" length="27.95" shape="790.89,282.60 798.99,284.40 804.57,285.50 810.19,286.28 818.45,287.11"/>
    </edge>
    <edge id=":node6_10" function="internal">
        <lane id=":node6_10_0" index="0" speed="10.58" length="14.47" shape="790.19,285.72 797.24,288.29 801.74,292.27 802.07,293.17"/>
    </edge>
    <edge id=":node6_11" function="internal">
        <lane id=":node6_11_0" index="0" speed="3.65" length="2.34" shape="790.19,285.72 791.19,286.76 791.41,287.63"/>
    </edge>
    <edge id=":node6_20" function="internal">
        <lane id=":node6_20_0" index="0" speed="10.58" length="11.60" shape="802.07,293.17 803.70,297.66 803.10,304.46"/>
    </edge>
    <edge id=":node6_21" function="internal">
        <lane id=":node6_21_0" index="0" speed="3.65" length="2.34" shape="791.41,287.63 790.84,288.32 789.50,288.84"/>
    </edge>
    <edge id=":node6_12" function="internal">
        <lane id=":node6_12_0" index="0" speed="6.86" length="10.34" shape="793.79,302.14 793.94,299.65 793.05,297.64 791.10,296.12 788.10,295.09"/>
    </edge>
    <edge id=":node6_13" function="internal">
        <lane id=":node6_13_0" index="0" speed="13.89" length="28.25" shape="796.89,302.91 798.85,294.77 799.89,289.12 800.41,283.39 800.83,275.02"/>
    </edge>
    <edge id=":node6_14" function="internal">
        <lane id=":node6_14_0" index="0" speed="11.08" length="13.81" shape="800.00,303.68 802.51,297.31 806.37,292.96 807.41,292.49"/>
    </edge>
    <edge id=":node6_15" function="internal">
        <lane id=":node6_15_0" index="0" speed="3.65" length="2.34" shape="800.00,303.68 801.07,302.71 801.94,302.52"/>
    </edge>
    <edge id=":node6_22" function="internal">
        <lane id=":node6_22_0" index="0" speed="11.08" length="11.14" shape="807.41,292.49 811.58,290.62 818.15,290.30"/>
    </edge>
    <edge id=":node6_23" function="internal">
        <lane id=":node6_23_0" index="0" speed="3.65" length="2.34" shape="801.94,302.52 802.62,303.10 803.10,304.46"/>
    </edge>
    <edge id=":node7_0" function="internal">
        <lane id=":node7_0_0" index="0" speed="6.42" length="9.04" shape="107.26,-123.09 104.77,-123.00 102.94,-122.13 101.77,-120.48 101.25,-118.04"/>
    </edge>
    <edge id=":node7_1" function="internal">
        <lane id=":node7_1_0" index="0" speed="13.89" length="28.45" shape="107.60,-126.28 79.33,-129.48"/>
    </edge>
    <edge id=":node7_2" function="internal">
        <lane id=":node7_2_0" index="0" speed="10.88" length="13.86" shape="107.93,-129.46 101.24,-131.17 96.54,-134.66 96.04,-135.64"/>
    </edge>
    <edge id=":node7_3" function="internal">
        <lane id=":node7_3_0" index="0" speed="3.65" length="2.34" shape="107.93,-129.46 106.83,-130.38 106.51,-131.22"/>
    </edge>
    <edge id=":node7_16" function="internal">
        <lane id=":node7_16_0" index="0" speed="10.88" length="11.90" shape="96.04,-135.64 93.85,-139.93 93.17,-146.98"/>
    </edge>
    <edge id=":node7_17" function="internal">
        <lane id=":node7_17_0" index="0" speed="3.65" length="2.34" shape="106.51,-131.22 107.00,-131.97 108.27,-132.64"/>
    </edge>
    <edge id=":node7_4" function="internal">
        <lane id=":node7_4_0" index="0" speed="7.29" length="11.01" shape="102.76,-146.59 103.04,-143.53 104.17,-141.25 106.14,-139.74 108.95,-139.01"/>
    </edge>
    <edge id=":node7_5" function="internal">
        <lane id=":node7_5_0" index="0" speed="13.89" length="28.51" shape="99.56,-146.72 98.06,-118.25"/>
    </edge>
    <edge id=":node7_6" function="internal">
        <lane id=":node7_6_0" index="0" speed="10.25" length="13.77" shape="96.36,-146.85 95.08,-139.92 91.88,-135.24 90.92,-134.79"/>
    </edge>
    <edge id=":node7_7" function="internal">
        <lane id=":node7_7_0" index="0" speed="3.65" length="2.34" shape="96.36,-146.85 95.52,-145.68 94.70,-145.31"/>
    </edge>
    <edge id=":node7_18" function="internal">