<?xml version="1.0" encoding="utf-8"?>
	<routes xmlns:xsi="http://www.w3.org/2001/XMLSchema-instance" xsi:noNamespaceSchemaLocation="http://sumo.dlr.de/xsd/routes_file.xsd">
		<vType accel="2.0" decel="4.5" id="pkw" length="5.0" maxSpeed="11.111" minGap="2.5" width="2.0"/>
		<vehicle depart="0" id="0">
			<route edges="road_0_2_0 road_1_2_0 road_2_2_3 road_2_1_3"/>
		</vehicle>
		<vehicle depart="0" id="1">
			<route edges="road_0_1_0 road_1_1_0 road_2_1_1 road_2_2_0 road_3_2_0"/>
		</vehicle>
		<vehicle depart="0" id="2">
			<route edges="road_0_3_0 road_1_3_0 road_2_3_0 road_3_3_0"/>
		</vehicle>
		<vehicle depart="0" id="3">
			<route edges="road_4_2_2 road_3_2_1 road_3_3_1"/>
		</vehicle>
		<vehicle depart="0" id="4">
			<route edges="road_4_3_2 road_3_3_3 road_3_2_3 road_3_1_2 road_2_1_2 road_1_1_2"/>
		</vehicle>
		<vehicle depart="0" id="5">
			<route edges="road_4_1_2 road_3_1_2 road_2_1_2 road_1_1_2"/>
		</vehicle>
		<vehicle depart="0" id="6">
			<route edges="road_3_4_3 road_3_3_2 road_2_3_2 road_1_3_2"/>
		</vehicle>
		<vehicle depart="0" id="7">
			<route edges="road_2_4_3 road_2_3_2 road_1_3_2"/>
		</vehicle>
		<vehicle depart="0" id="8">
			<route edges="road_1_4_3 road_1_3_3 road_1_2_3 road_1_1_3"/>
		</vehicle>
		<vehicle depart="0" id="9">
			<route edges="road_1_0_1 road_1_1_1 road_1_2_0 road_2_2_0 road_3_2_0"/>
		</vehicle>
		<vehicle depart="0" id="10">
			<route edges="road_2_0_1 road_2_1_1 road_2_2_1 road_2_3_2 road_1_3_2"/>
		</vehicle>
		<vehicle depart="0" id="11">
			<route edges="road_3_0_1 road_3_1_1 road_3_2_1 road_3_3_2 road_2_3_2 road_1_3_2"/>
		</vehicle>
		<vehicle depart="4" id="12">
			<route edges="road_4_2_2 road_3_2_3 road_3_1_0"/>
		</vehicle>
		<vehicle depart="4" id="13">
			<route edges="road_4_3_2 road_3_3_2 road_2_3_2 road_1_3_2"/>
		</vehicle>
		<vehicle depart="4" id="14">
			<route edges="road_4_1_2 road_3_1_1 road_3_2_0"/>
		</vehicle>
		<vehicle depart="4" id="15">
			<route edges="road_2_4_3 road_2_3_3 road_2_2_3 road_2_1_3"/>
		</vehicle>
		<vehicle depart="5" id="16">
			<route edges="road_3_4_3 road_3_3_3 road_3_2_2 road_2_2_2 road_1_2_2"/>
		</vehicle>
		<vehicle depart="5" id="17">
			<route edges="road_1_4_3 road_1_3_3 road_1_2_3 road_1_1_2"/>
		</vehicle>
		<vehicle depart="6" id="18">
			<route edges="road_0_1_0 road_1_1_0 road_2_1_3"/>
		</vehicle>
		<vehicle depart="6" id="19">
			<route edges="road_0_3_0 road_1_3_0 road_2_3_0 road_3_3_0"/>
		</vehicle>
		<vehicle depart="6" id="20">
			<route edges="road_1_0_1 road_1_1_0 road_2_1_0 road_3_1_0"/>
		</vehicle>
		<vehicle depart="6" id="21">
			<route edges="road_2_0_1 road_2_1_1 road_2_2_1 road_2_3_0 road_3_3_3 road_3_2_0"/>
		</vehicle>
		<vehicle depart="7" id="22">
			<route edges="road_0_2_0 road_1_2_0 road_2_2_3 road_2_1_3"/>
		</vehicle>
		<vehicle depart="8" id="23">
			<route edges="road_4_2_2 road_3_2_2 road_2_2_2 road_1_2_1 road_1_3_1"/>
		</vehicle>
		<vehicle depart="8" id="24">
			<route edges="road_4_3_2 road_3_3_3 road_3_2_3 road_3_1_3"/>
		</vehicle>
		<vehicle depart="8" id="25">
			<route edges="road_4_1_2 road_3_1_2 road_2_1_2 road_1_1_2"/>
		</vehicle>
		<vehicle depart="8" id="26">
			<route edges="road_2_4_3 road_2_3_3 road_2_2_2 road_1_2_3 road_1_1_2"/>
		</vehicle>
		<vehicle depart="8" id="27">
			<route edges="road_3_0_1 road_3_1_0"/>
		</vehicle>
		<vehicle depart="10" id="28">
			<route edges="road_3_4_3 road_3_3_2 road_2_3_1"/>
		</vehicle>
		<vehicle depart="10" id="29">
			<route edges="road_1_4_3 road_1_3_2"/>
		</vehicle>
		<vehicle depart="12" id="30">
			<route edges="road_0_1_0 road_1_1_1 road_1_2_0 road_2_2_1 road_2_3_1"/>
		</vehicle>
		<vehicle depart="12" id="31">
			<route edges="road_0_3_0 road_1_3_0 road_2_3_3 road_2_2_3 road_2_1_2 road_1_1_1 road_1_2_2"/>
		</vehicle>
		<vehicle depart="12" id="32">
			<route edges="road_4_2_2 road_3_2_3 road_3_1_2 road_2_1_1 road_2_2_0 road_3_2_0"/>
		</vehicle>
		<vehicle depart="12" id="33">
			<route edges="road_4_3_2 road_3_3_2 road_2_3_2 road_1_3_2"/>
		</vehicle>
		<vehicle depart="12" id="34">
			<route edges="road_4_1_2 road_3_1_3"/>
		</vehicle>
		<vehicle depart="12" id="35">
			<route edges="road_2_4_3 road_2_3_3 road_2_2_3 road_2_1_3"/>
		</vehicle>
		<vehicle depart="12" id="36">
			<route edges="road_1_0_1 road_1_1_1 road_1_2_0 road_2_2_0 road_3_2_0"/>
		</vehicle>
		<vehicle depart="12" id="37">
			<route edges="road_2_0_1 road_2_1_1 road_2_2_0 road_3_2_0"/>
		</vehicle>
		<vehicle depart="14" id="38">
			<route edges="road_0_2_0 road_1_2_3 road_1_1_2"/>
		</vehicle>
		<vehicle depart="15" id="39">
			<route edges="road_3_4_3 road_3_3_3 road_3_2_3 road_3_1_3"/>
		</vehicle>
		<vehicle depart="15" id="40">
			<route edges="road_1_4_3 road_1_3_2"/>
		</vehicle>
		<vehicle depart="16" id="41">
			<route edges="road_4_2_2 road_3_2_1 road_3_3_1"/>
		</vehicle>
		<vehicle depart="16" id="42">
			<route edges="road_4_3_2 road_3_3_2 road_2_3_2 road_1_3_2"/>
		</vehicle>
		<vehicle depart="16" id="43">
			<route edges="road_4_1_2 road_3_1_1 road_3_2_1 road_3_3_1"/>
		</vehicle>
		<vehicle depart="16" id="44">
			<route edges="road_2_4_3 road_2_3_2 road_1_3_1"/>
		</vehicle>
		<vehicle depart="16" id="45">
			<route edges="road_3_0_1 road_3_1_0"/>
		</vehicle>
		<vehicle depart="18" id="46">
			<route edges="road_0_1_0 road_1_1_0 road_2_1_0 road_3_1_0"/>
		</vehicle>
		<vehicle depart="18" id="47">
			<route edges="road_0_3_0 road_1_3_0 road_2_3_1"/>
		</vehicle>
		<vehicle depart="18" id="48">
			<route edges="road_1_0_1 road_1_1_0 road_2_1_0 road_3_1_0"/>
		</vehicle>
		<vehicle depart="18" id="49">
			<route edges="road_2_0_1 road_2_1_0 road_3_1_3"/>
		</vehicle>
		<vehicle depart="20" id="50">
			<route edges="road_4_2_2 road_3_2_3 road_3_1_2 road_2_1_1 road_2_2_1 road_2_3_1"/>
		</vehicle>
		<vehicle depart="20" id="51">
			<route edges="road_4_3_2 road_3_3_2 road_2_3_1"/>
		</vehicle>
		<vehicle depart="20" id="52">
			<route edges="road_4_1_2 road_3_1_2 road_2_1_2 road_1_1_2"/>
		</vehicle>
		<vehicle depart="20" id="53">
			<route edges="road_3_4_3 road_3_3_2 road_2_3_2 road_1_3_1"/>
		</vehicle>
		<vehicle depart="20" id="54">
			<route edges="road_2_4_3 road_2_3_3 road_2_2_2 road_1_2_2"/>
		</vehicle>
		<vehicle depart="20" id="55">
			<route edges="road_1_4_3 road_1_3_2"/>
		</vehicle>
		<vehicle depart="21" id="56">
			<route edges="road_0_2_0 road_1_2_3 road_1_1_3"/>
		</vehicle>
		<vehicle depart="24" id="57">
			<route edges="road_0_1_0 road_1_1_0 road_2_1_0 road_3_1_3"/>
		</vehicle>
		<vehicle depart="24" id="58">
			<route edges="road_0_3_0 road_1_3_0 road_2_3_3 road_2_2_0 road_3_2_0"/>
		</vehicle>
		<vehicle depart="24" id="59">
			<route edges="road_4_2_2 road_3_2_3 road_3_1_3"/>
		</vehicle>
		<vehicle depart="24" id="60">
			<route edges="road_4_3_2 road_3_3_2 road_2_3_2 road_1_3_1"/>
		</vehicle>
		<vehicle depart="24" id="61">
			<route edges="road_4_1_2 road_3_1_2 road_2_1_2 road_1_1_2"/>
		</vehicle>
		<vehicle depart="24" id="62">
			<route edges="road_2_4_3 road_2_3_3 road_2_2_2 road_1_2_2"/>
		</vehicle>
		<vehicle depart="24" id="63">
			<route edges="road_1_0_1 road_1_1_1 road_1_2_1 road_1_3_1"/>
		</vehicle>
		<vehicle depart="24" id="64">
			<route edges="road_2_0_1 road_2_1_1 road_2_2_1 road_2_3_1"/>
		</vehicle>
		<vehicle depart="24" id="65">
			<route edges="road_3_0_1 road_3_1_0"/>
		</vehicle>
		<vehicle depart="25" id="66">
			<route edges="road_3_4_3 road_3_3_3 road_3_2_3 road_3_1_3"/>
		</vehicle>
		<vehicle depart="25" id="67">
			<route edges="road_1_4_3 road_1_3_0 road_2_3_3 road_2_2_3 road_2_1_0 road_3_1_3"/>
		</vehicle>
		<vehicle depart="28" id="68">
			<route edges="road_0_2_0 road_1_2_3 road_1_1_3"/>
		</vehicle>
		<vehicle depart="28" id="69">
			<route edges="road_4_2_2 road_3_2_2 road_2_2_2 road_1_2_2"/>
		</vehicle>
		<vehicle depart="28" id="70">
			<route edges="road_4_3_2 road_3_3_1"/>
		</vehicle>
		<vehicle depart="28" id="71">
			<route edges="road_4_1_2 road_3_1_1 road_3_2_1 road_3_3_1"/>
		</vehicle>
		<vehicle depart="28" id="72">
			<route edges="road_2_4_3 road_2_3_2 road_1_3_2"/>
		</vehicle>
		<vehicle depart="30" id="73">
			<route edges="road_0_1_0 road_1_1_0 road_2_1_0 road_3_1_0"/>
		</vehicle>
		<vehicle depart="30" id="74">
			<route edges="road_0_3_0 road_1_3_3 road_1_2_3 road_1_1_3"/>
		</vehicle>
		<vehicle depart="30" id="75">
			<route edges="road_3_4_3 road_3_3_3 road_3_2_2 road_2_2_2 road_1_2_2"/>
		</vehicle>
		<vehicle depart="30" id="76">
			<route edges="road_1_4_3 road_1_3_0 road_2_3_3 road_2_2_3 road_2_1_2 road_1_1_2"/>
		</vehicle>
		<vehicle depart="30" id="77">
			<route edges="road_1_0_1 road_1_1_0 road_2_1_0 road_3_1_0"/>
		</vehicle>
		<vehicle depart="30" id="78">
			<route edges="road_2_0_1 road_2_1_1 road_2_2_2 road_1_2_2"/>
		</vehicle>
		<vehicle depart="32" id="79">
			<route edges="road_4_2_2 road_3_2_2 road_2_2_1 road_2_3_0 road_3_3_3 road_3_2_3 road_3_1_3"/>
		</vehicle>
		<vehicle depart="32" id="80">
			<route edges="road_4_3_2 road_3_3_1"/>
		</vehicle>
		<vehicle depart="32" id="81">
			<route edges="road_4_1_2 road_3_1_2 road_2_1_2 road_1_1_2"/>
		</vehicle>
		<vehicle depart="32" id="82">
			<route edges="road_2_4_3 road_2_3_3 road_2_2_3 road_2_1_0 road_3_1_0"/>
		</vehicle>
		<vehicle depart="32" id="83">
			<route edges="road_3_0_1 road_3_1_1 road_3_2_1 road_3_3_0"/>
		</vehicle>
		<vehicle depart="35" id="84">
			<route edges="road_0_2_0 road_1_2_0 road_2_2_3 road_2_1_3"/>
		</vehicle>
		<vehicle depart="35" id="85">
			<route edges="road_3_4_3 road_3_3_2 road_2_3_2 road_1_3_2"/>
		</vehicle>
		<vehicle depart="35" id="86">
			<route edges="road_1_4_3 road_1_3_3 road_1_2_3 road_1_1_3"/>
		</vehicle>
		<vehicle depart="36" id="87">
			<route edges="road_0_1_0 road_1_1_3"/>
		</vehicle>
		<vehicle depart="36" id="88">
			<route edges="road_0_3_0 road_1_3_0 road_2_3_3 road_2_2_0 road_3_2_0"/>
		</vehicle>
		<vehicle depart="36" id="89">
			<route edges="road_4_2_2 road_3_2_2 road_2_2_1 road_2_3_1"/>
		</vehicle>
		<vehicle depart="36" id="90">
			<route edges="road_4_3_2 road_3_3_3 road_3_2_2 road_2_2_3 road_2_1_3"/>
		</vehicle>
		<vehicle depart="36" id="91">
			<route edges="road_4_1_2 road_3_1_2 road_2_1_3"/>
		</vehicle>
		<vehicle depart="36" id="92">
			<route edges="road_2_4_3 road_2_3_3 road_2_2_3 road_2_1_3"/>
		</vehicle>
		<vehicle depart="36" id="93">
			<route edges="road_1_0_1 road_1_1_0 road_2_1_1 road_2_2_0 road_3_2_0"/>
		</vehicle>
		<vehicle depart="36" id="94">
			<route edges="road_2_0_1 road_2_1_1 road_2_2_1 road_2_3_1"/>
		</vehicle>
		<vehicle depart="40" id="95">
			<route edges="road_4_2_2 road_3_2_2 road_2_2_2 road_1_2_1 road_1_3_1"/>
		</vehicle>
		<vehicle depart="40" id="96">
			<route edges="road_4_3_2 road_3_3_2 road_2_3_1"/>
		</vehicle>
		<vehicle depart="40" id="97">
			<route edges="road_4_1_2 road_3_1_2 road_2_1_3"/>
		</vehicle>
		<vehicle depart="40" id="98">
			<route edges="road_3_4_3 road_3_3_2 road_2_3_2 road_1_3_1"/>
		</vehicle>
		<vehicle depart="40" id="99">
			<route edges="road_2_4_3 road_2_3_3 road_2_2_3 road_2_1_2 road_1_1_2"/>
		</vehicle>
		<vehicle depart="40" id="100">
			<route edges="road_1_4_3 road_1_3_3 road_1_2_3 road_1_1_3"/>
		</vehicle>
		<vehicle depart="40" id="101">
			<route edges="road_3_0_1 road_3_1_1 road_3_2_1 road_3_3_1"/>
		</vehicle>
		<vehicle depart="42" id="102">
			<route edges="road_0_2_0 road_1_2_3 road_1_1_3"/>
		</vehicle>
		<vehicle depart="42" id="103">
			<route edges="road_0_1_0 road_1_1_3"/>
		</vehicle>
		<vehicle depart="42" id="104">
			<route edges="road_0_3_0 road_1_3_0 road_2_3_3 road_2_2_3 road_2_1_2 road_1_1_2"/>
		</vehicle>
		<vehicle depart="42" id="105">
			<route edges="road_1_0_1 road_1_1_1 road_1_2_1 road_1_3_1"/>
		</vehicle>
		<vehicle depart="42" id="106">
			<route edges="road_2_0_1 road_2_1_2 road_1_1_1 road_1_2_1 road_1_3_1"/>
		</vehicle>
		<vehicle depart="44" id="107">
			<route edges="road_4_2_2 road_3_2_2 road_2_2_2 road_1_2_2"/>
		</vehicle>
		<vehicle depart="44" id="108">
			<route edges="road_4_3_2 road_3_3_2 road_2_3_2 road_1_3_2"/>
		</vehicle>
		<vehicle depart="44" id="109">
			<route edges="road_4_1_2 road_3_1_2 road_2_1_2 road_1_1_1 road_1_2_2"/>
		</vehicle>
		<vehicle depart="44" id="110">
			<route edges="road_2_4_3 road_2_3_2 road_1_3_1"/>
		</vehicle>
		<vehicle depart="45" id="111">
			<route edges="road_3_4_3 road_3_3_3 road_3_2_2 road_2_2_2 road_1_2_2"/>
		</vehicle>
		<vehicle depart="45" id="112">
			<route edges="road_1_4_3 road_1_3_3 road_1_2_0 road_2_2_0 road_3_2_3 road_3_1_3"/>
		</vehicle>
		<vehicle depart="48" id="113">
			<route edges="road_0_1_0 road_1_1_0 road_2_1_0 road_3_1_0"/>
		</vehicle>
		<vehicle depart="48" id="114">
			<route edges="road_0_3_0 road_1_3_1"/>
		</vehicle>
		<vehicle depart="48" id="115">
			<route edges="road_4_2_2 road_3_2_2 road_2_2_3 road_2_1_3"/>
		</vehicle>
		<vehicle depart="48" id="116">
			<route edges="road_4_3_2 road_3_3_2 road_2_3_1"/>
		</vehicle>
		<vehicle depart="48" id="117">
			<route edges="road_4_1_2 road_3_1_2 road_2_1_2 road_1_1_1 road_1_2_1 road_1_3_0 road_2_3_0 road_3_3_0"/>
		</vehicle>
		<vehicle depart="48" id="118">
			<route edges="road_2_4_3 road_2_3_3 road_2_2_3 road_2_1_3"/>
		</vehicle>
		<vehicle depart="48" id="119">
			<route edges="road_1_0_1 road_1_1_1 road_1_2_1 road_1_3_1"/>
		</vehicle>
		<vehicle depart="48" id="120">
			<route edges="road_2_0_1 road_2_1_1 road_2_2_1 road_2_3_0 road_3_3_3 road_3_2_3 road_3_1_2"/>
		</vehicle>
		<vehicle depart="48" id="121">
			<route edges="road_3_0_1 road_3_1_1 road_3_2_2 road_2_2_3 road_2_1_3"/>
		</vehicle>
		<vehicle depart="49" id="122">
			<route edges="road_0_2_0 road_1_2_0 road_2_2_0 road_3_2_3 road_3_1_3"/>
		</vehicle>
		<vehicle depart="50" id="123">
			<route edges="road_3_4_3 road_3_3_2 road_2_3_1"/>
		</vehicle>
		<vehicle depart="50" id="124">
			<route edges="road_1_4_3 road_1_3_2"/>
		</vehicle>
		<vehicle depart="52" id="125">
			<route edges="road_4_2_2 road_3_2_2 road_2_2_1 road_2_3_2 road_1_3_2"/>
		</vehicle>
		<vehicle depart="52" id="126">
			<route edges="road_4_3_2 road_3_3_1"/>
		</vehicle>
		<vehicle depart="52" id="127">
			<route edges="road_4_1_2 road_3_1_2 road_2_1_1 road_2_2_1 road_2_3_0 road_3_3_0"/>
		</vehicle>
		<vehicle depart="52" id="128">
			<route edges="road_2_4_3 road_2_3_3 road_2_2_3 road_2_1_3"/>
		</vehicle>
		<vehicle depart="54" id="129">
			<route edges="road_0_1_0 road_1_1_3"/>
		</vehicle>
		<vehicle depart="54" id="130">
			<route edges="road_0_3_0 road_1_3_0 road_2_3_1"/>
		</vehicle>
		<vehicle depart="54" id="131">
			<route edges="road_1_0_1 road_1_1_0 road_2_1_0 road_3_1_3"/>
		</vehicle>
		<vehicle depart="54" id="132">
			<route edges="road_2_0_1 road_2_1_0 road_3_1_0"/>
		</vehicle>
		<vehicle depart="55" id="133">
			<route edges="road_3_4_3 road_3_3_3 road_3_2_3 road_3_1_3"/>
		</vehicle>
		<vehicle depart="55" id="134">
			<route edges="road_1_4_3 road_1_3_0 road_2_3_0 road_3_3_0"/>
		</vehicle>
		<vehicle depart="56" id="135">
			<route edges="road_0_2_0 road_1_2_0 road_2_2_0 road_3_2_0"/>
		</vehicle>
		<vehicle depart="56" id="136">
			<route edges="road_4_2_2 road_3_2_3 road_3_1_2 road_2_1_2 road_1_1_2"/>
		</vehicle>
		<vehicle depart="56" id="137">
			<route edges="road_4_3_2 road_3_3_3 road_3_2_3 road_3_1_2 road_2_1_2 road_1_1_2"/>
		</vehicle>
		<vehicle depart="56" id="138">
			<route edges="road_4_1_2 road_3_1_2 road_2_1_3"/>
		</vehicle>
		<vehicle depart="56" id="139">
			<route edges="road_2_4_3 road_2_3_3 road_2_2_3 road_2_1_3"/>
		</vehicle>
		<vehicle depart="56" id="140">
			<route edges="road_3_0_1 road_3_1_1 road_3_2_1 road_3_3_0"/>
		</vehicle>
		<vehicle depart="60" id="141">
			<route edges="road_0_1_0 road_1_1_0 road_2_1_0 road_3_1_0"/>
		</vehicle>
		<vehicle depart="60" id="142">
			<route edges="road_0_3_0 road_1_3_1"/>
		</vehicle>
		<vehicle depart="60" id="143">
			<route edges="road_4_2_2 road_3_2_1 road_3_3_1"/>
		</vehicle>
		<vehicle depart="60" id="144">
			<route edges="road_4_3_2 road_3_3_2 road_2_3_2 road_1_3_1"/>
		</vehicle>
		<vehicle depart="60" id="145">
			<route edges="road_4_1_2 road_3_1_2 road_2_1_2 road_1_1_2"/>
		</vehicle>
		<vehicle depart="60" id="146">
			<route edges="road_3_4_3 road_3_3_2 road_2_3_2 road_1_3_2"/>
		</vehicle>
		<vehicle depart="60" id="147">
			<route edges="road_2_4_3 road_2_3_0 road_3_3_0"/>
		</vehicle>
		<vehicle depart="60" id="148">
			<route edges="road_1_4_3 road_1_3_2"/>
		</vehicle>
		<vehicle depart="60" id="149">
			<route edges="road_1_0_1 road_1_1_1 road_1_2_0 road_2_2_0 road_3_2_3 road_3_1_0"/>
		</vehicle>
		<vehicle depart="60" id="150">
			<route edges="road_2_0_1 road_2_1_0 road_3_1_0"/>
		</vehicle>
		<vehicle depart="63" id="151">
			<route edges="road_0_2_0 road_1_2_3 road_1_1_3"/>
		</vehicle>
		<vehicle depart="64" id="152">
			<route edges="road_4_2_2 road_3_2_2 road_2_2_1 road_2_3_1"/>
		</vehicle>
		<vehicle depart="64" id="153">
			<route edges="road_4_3_2 road_3_3_1"/>
		</vehicle>
		<vehicle depart="64" id="154">
			<route edges="road_4_1_2 road_3_1_2 road_2_1_2 road_1_1_1 road_1_2_0 road_2_2_0 road_3_2_3 road_3_1_3"/>
		</vehicle>
		<vehicle depart="64" id="155">
			<route edges="road_2_4_3 road_2_3_3 road_2_2_0 road_3_2_3 road_3_1_3"/>
		</vehicle>
		<vehicle depart="64" id="156">
			<route edges="road_3_0_1 road_3_1_0"/>
		</vehicle>
		<vehicle depart="65" id="157">
			<route edges="road_3_4_3 road_3_3_3 road_3_2_3 road_3_1_3"/>
		</vehicle>
		<vehicle depart="65" id="158">
			<route edges="road_1_4_3 road_1_3_3 road_1_2_3 road_1_1_2"/>
		</vehicle>
		<vehicle depart="66" id="159">
			<route edges="road_0_1_0 road_1_1_0 road_2_1_3"/>
		</vehicle>
		<vehicle depart="66" id="160">
			<route edges="road_0_3_0 road_1_3_1"/>
		</vehicle>
		<vehicle depart="66" id="161">
			<route edges="road_1_0_1 road_1_1_0 road_2_1_3"/>
		</vehicle>
		<vehicle depart="66" id="162">
			<route edges="road_2_0_1 road_2_1_1 road_2_2_1 road_2_3_1"/>
		</vehicle>
		<vehicle depart="68" id="163">
			<route edges="road_4_2_2 road_3_2_3 road_3_1_2 road_2_1_2 road_1_1_2"/>
		</vehicle>
		<vehicle depart="68" id="164">
			<route edges="road_4_3_2 road_3_3_1"/>
		</vehicle>
		<vehicle depart="68" id="165">
			<route edges="road_4_1_2 road_3_1_2 road_2_1_2 road_1_1_1 road_1_2_1 road_1_3_0 road_2_3_3 road_2_2_0 road_3_2_0"/>
		</vehicle>
		<vehicle depart="68" id="166">
			<route edges="road_2_4_3 road_2_3_2 road_1_3_2"/>
		</vehicle>
		<vehicle depart="70" id="167">
			<route edges="road_0_2_0 road_1_2_1 road_1_3_1"/>
		</vehicle>
		<vehicle depart="70" id="168">
			<route edges="road_3_4_3 road_3_3_2 road_2_3_1"/>
		</vehicle>
		<vehicle depart="70" id="169">
			<route edges="road_1_4_3 road_1_3_2"/>
		</vehicle>
		<vehicle depart="72" id="170">
			<route edges="road_0_1_0 road_1_1_0 road_2_1_0 road_3_1_0"/>
		</vehicle>
		<vehicle depart="72" id="171">
			<route edges="road_0_3_0 road_1_3_0 road_2_3_3 road_2_2_2 road_1_2_2"/>
		</vehicle>
		<vehicle depart="72" id="172">
			<route edges="road_4_2_2 road_3_2_1 road_3_3_1"/>
		</vehicle>
		<vehicle depart="72" id="173">
			<route edges="road_4_3_2 road_3_3_2 road_2_3_1"/>
		</vehicle>
		<vehicle depart="72" id="174">
			<route edges="road_4_1_2 road_3_1_2 road_2_1_2 road_1_1_2"/>
		</vehicle>
		<vehicle depart="72" id="175">
			<route edges="road_2_4_3 road_2_3_0 road_3_3_0"/>
		</vehicle>
		<vehicle depart="72" id="176">
			<route edges="road_1_0_1 road_1_1_1 road_1_2_1 road_1_3_1"/>
		</vehicle>
		<vehicle depart="72" id="177">
			<route edges="road_2_0_1 road_2_1_1 road_2_2_2 road_1_2_2"/>
		</vehicle>
		<vehicle depart="72" id="178">
			<route edges="road_3_0_1 road_3_1_1 road_3_2_0"/>
		</vehicle>
		<vehicle depart="75" id="179">
			<route edges="road_3_4_3 road_3_3_3 road_3_2_3 road_3_1_2 road_2_1_2 road_1_1_2"/>
		</vehicle>
		<vehicle depart="75" id="180">
			<route edges="road_1_4_3 road_1_3_2"/>
		</vehicle>
		<vehicle depart="76" id="181">
			<route edges="road_4_2_2 road_3_2_2 road_2_2_1 road_2_3_1"/>
		</vehicle>
		<vehicle depart="76" id="182">
			<route edges="road_4_3_2 road_3_3_1"/>
		</vehicle>
		<vehicle depart="76" id="183">
			<route edges="road_4_1_2 road_3_1_1 road_3_2_1 road_3_3_1"/>
		</vehicle>
		<vehicle depart="76" id="184">
			<route edges="road_2_4_3 road_2_3_2 road_1_3_3 road_1_2_3 road_1_1_0 road_2_1_0 road_3_1_3"/>
		</vehicle>
		<vehicle depart="77" id="185">
			<route edges="road_0_2_0 road_1_2_0 road_2_2_0 road_3_2_3 road_3_1_3"/>
		</vehicle>
		<vehicle depart="78" id="186">
			<route edges="road_0_1_0 road_1_1_0 road_2_1_1 road_2_2_0 road_3_2_0"/>
		</vehicle>
		<vehicle depart="78" id="187">
			<route edges="road_0_3_0 road_1_3_3 road_1_2_2"/>
		</vehicle>
		<vehicle depart="78" id="188">
			<route edges="road_1_0_1 road_1_1_2"/>
		</vehicle>
		<vehicle depart="78" id="189">
			<route edges="road_2_0_1 road_2_1_2 road_1_1_2"/>
		</vehicle>
		<vehicle depart="80" id="190">
			<route edges="road_4_2_2 road_3_2_2 road_2_2_2 road_1_2_2"/>
		</vehicle>
		<vehicle depart="80" id="191">
			<route edges="road_4_3_2 road_3_3_2 road_2_3_2 road_1_3_2"/>
		</vehicle>
		<vehicle depart="80" id="192">
			<route edges="road_4_1_2 road_3_1_3"/>
		</vehicle>
		<vehicle depart="80" id="193">
			<route edges="road_3_4_3 road_3_3_3 road_3_2_3 road_3_1_2 road_2_1_2 road_1_1_3"/>
		</vehicle>
		<vehicle depart="80" id="194">
			<route edges="road_2_4_3 road_2_3_3 road_2_2_3 road_2_1_3"/>
		</vehicle>
		<vehicle depart="80" id="195">
			<route edges="road_1_4_3 road_1_3_2"/>
		</vehicle>
		<vehicle depart="80" id="196">
			<route edges="road_3_0_1 road_3_1_1 road_3_2_2 road_2_2_2 road_1_2_3 road_1_1_3"/>
		</vehicle>
		<vehicle depart="84" id="197">
			<route edges="road_0_2_0 road_1_2_3 road_1_1_3"/>
		</vehicle>
		<vehicle depart="84" id="198">
			<route edges="road_0_1_0 road_1_1_0 road_2_1_0 road_3_1_0"/>
		</vehicle>
		<vehicle depart="84" id="199">
			<route edges="road_0_3_0 road_1_3_3 road_1_2_3 road_1_1_3"/>
		</vehicle>
		<vehicle depart="84" id="200">
			<route edges="road_4_2_2 road_3_2_2 road_2_2_1 road_2_3_2 road_1_3_2"/>
		</vehicle>
		<vehicle depart="84" id="201">
			<route edges="road_4_3_2 road_3_3_1"/>
		</vehicle>
		<vehicle depart="84" id="202">
			<route edges="road_4_1_2 road_3_1_1 road_3_2_1 road_3_3_1"/>
		</vehicle>
		<vehicle depart="84" id="203">
			<route edges="road_2_4_3 road_2_3_2 road_1_3_2"/>
		</vehicle>
		<vehicle depart="84" id="204">
			<route edges="road_1_0_1 road_1_1_1 road_1_2_1 road_1_3_1"/>
		</vehicle>
		<vehicle depart="84" id="205">
			<route edges="road_2_0_1 road_2_1_1 road_2_2_1 road_2_3_2 road_1_3_2"/>
		</vehicle>
		<vehicle depart="85" id="206">
			<route edges="road_3_4_3 road_3_3_3 road_3_2_2 road_2_2_1 road_2_3_0 road_3_3_0"/>
		</vehicle>
		<vehicle depart="85" id="207">
			<route edges="road_1_4_3 road_1_3_3 road_1_2_3 road_1_1_3"/>
		</vehicle>
		<vehicle depart="88" id="208">
			<route edges="road_4_2_2 road_3_2_1 road_3_3_1"/>
		</vehicle>
		<vehicle depart="88" id="209">
			<route edges="road_4_3_2 road_3_3_2 road_2_3_2 road_1_3_1"/>
		</vehicle>
		<vehicle depart="88" id="210">
			<route edges="road_4_1_2 road_3_1_2 road_2_1_2 road_1_1_2"/>
		</vehicle>
		<vehicle depart="88" id="211">
			<route edges="road_2_4_3 road_2_3_3 road_2_2_0 road_3_2_1 road_3_3_1"/>
		</vehicle>
		<vehicle depart="88" id="212">
			<route edges="road_3_0_1 road_3_1_1 road_3_2_1 road_3_3_1"/>
		</vehicle>
		<vehicle depart="90" id="213">
			<route edges="road_0_1_0 road_1_1_1 road_1_2_1 road_1_3_2"/>
		</vehicle>
		<vehicle depart="90" id="214">
			<route edges="road_0_3_0 road_1_3_3 road_1_2_3 road_1_1_3"/>
		</vehicle>
		<vehicle depart="90" id="215">
			<route edges="road_3_4_3 road_3_3_3 road_3_2_3 road_3_1_3"/>
		</vehicle>
		<vehicle depart="90" id="216">
			<route edges="road_1_4_3 road_1_3_2"/>
		</vehicle>
		<vehicle depart="90" id="217">
			<route edges="road_1_0_1 road_1_1_0 road_2_1_3"/>
		</vehicle>
		<vehicle depart="90" id="218">
			<route edges="road_2_0_1 road_2_1_0 road_3_1_1 road_3_2_2 road_2_2_2 road_1_2_1 road_1_3_1"/>
		</vehicle>
		<vehicle depart="91" id="219">
			<route edges="road_0_2_0 road_1_2_1 road_1_3_0 road_2_3_0 road_3_3_3 road_3_2_3 road_3_1_3"/>
		</vehicle>
		<vehicle depart="92" id="220">
			<route edges="road_4_2_2 road_3_2_2 road_2_2_1 road_2_3_0 road_3_3_0"/>
		</vehicle>
		<vehicle depart="92" id="221">
			<route edges="road_4_3_2 road_3_3_3 road_3_2_3 road_3_1_3"/>
		</vehicle>
		<vehicle depart="92" id="222">
			<route edges="road_4_1_2 road_3_1_2 road_2_1_1 road_2_2_2 road_1_2_1 road_1_3_1"/>
		</vehicle>
		<vehicle depart="92" id="223">
			<route edges="road_2_4_3 road_2_3_0 road_3_3_0"/>
		</vehicle>
		<vehicle depart="95" id="224">
			<route edges="road_3_4_3 road_3_3_3 road_3_2_2 road_2_2_2 road_1_2_2"/>
		</vehicle>
		<vehicle depart="95" id="225">
			<route edges="road_1_4_3 road_1_3_3 road_1_2_0 road_2_2_3 road_2_1_3"/>
		</vehicle>
		<vehicle depart="96" id="226">
			<route edges="road_0_1_0 road_1_1_3"/>
		</vehicle>
		<vehicle depart="96" id="227">
			<route edges="road_0_3_0 road_1_3_1"/>
		</vehicle>
		<vehicle depart="96" id="228">
			<route edges="road_4_2_2 road_3_2_2 road_2_2_2 road_1_2_2"/>
		</vehicle>
		<vehicle depart="96" id="229">
			<route edges="road_4_3_2 road_3_3_3 road_3_2_3 road_3_1_3"/>
		</vehicle>
		<vehicle depart="96" id="230">
			<route edges="road_4_1_2 road_3_1_2 road_2_1_2 road_1_1_2"/>
		</vehicle>
		<vehicle depart="96" id="231">
			<route edges="road_2_4_3 road_2_3_3 road_2_2_3 road_2_1_2 road_1_1_1 road_1_2_0"/>
		</vehicle>
		<vehicle depart="96" id="232">
			<route edges="road_1_0_1 road_1_1_0 road_2_1_0 road_3_1_3"/>
		</vehicle>
		<vehicle depart="96" id="233">
			<route edges="road_2_0_1 road_2_1_1 road_2_2_1 road_2_3_1"/>
		</vehicle>
		<vehicle depart="96" id="234">
			<route edges="road_3_0_1 road_3_1_0"/>
		</vehicle>
		<vehicle depart="98" id="235">
			<route edges="road_0_2_0 road_1_2_3 road_1_1_3"/>
		</vehicle>
		<vehicle depart="100" id="236">
			<route edges="road_4_2_2 road_3_2_2 road_2_2_1 road_2_3_1"/>
		</vehicle>
		<vehicle depart="100" id="237">
			<route edges="road_4_3_2 road_3_3_2 road_2_3_3 road_2_2_2 road_1_2_1 road_1_3_1"/>
		</vehicle>
		<vehicle depart="100" id="238">
			<route edges="road_4_1_2 road_3_1_2 road_2_1_1 road_2_2_1 road_2_3_1"/>
		</vehicle>
		<vehicle depart="100" id="239">
			<route edges="road_3_4_3 road_3_3_2 road_2_3_1"/>
		</vehicle>
		<vehicle depart="100" id="240">
			<route edges="road_2_4_3 road_2_3_3 road_2_2_0 road_3_2_0"/>
		</vehicle>
		<vehicle depart="100" id="241">
			<route edges="road_1_4_3 road_1_3_2"/>
		</vehicle>
		<vehicle depart="102" id="242">
			<route edges="road_0_1_0 road_1_1_0 road_2_1_0 road_3_1_0"/>
		</vehicle>
		<vehicle depart="102" id="243">
			<route edges="road_0_3_0 road_1_3_1"/>
		</vehicle>
		<vehicle depart="102" id="244">
			<route edges="road_1_0_1 road_1_1_1 road_1_2_2"/>
		</vehicle>
		<vehicle depart="102" id="245">
			<route edges="road_2_0_1 road_2_1_0 road_3_1_0"/>
		</vehicle>
		<vehicle depart="104" id="246">
			<route edges="road_4_2_2 road_3_2_1 road_3_3_1"/>
		</vehicle>
		<vehicle depart="104" id="247">
			<route edges="road_4_3_2 road_3_3_3 road_3_2_3 road_3_1_3"/>
		</vehicle>
		<vehicle depart="104" id="248">
			<route edges="road_4_1_2 road_3_1_2 road_2_1_2 road_1_1_2"/>
		</vehicle>
		<vehicle depart="104" id="249">
			<route edges="road_2_4_3 road_2_3_3 road_2_2_2 road_1_2_2"/>
		</vehicle>
		<vehicle depart="104" id="250">
			<route edges="road_3_0_1 road_3_1_1 road_3_2_1 road_3_3_1"/>
		</vehicle>
		<vehicle depart="105" id="251">
			<route edges="road_0_2_0 road_1_2_1 road_1_3_0 road_2_3_3 road_2_2_2"/>
		</vehicle>
		<vehicle depart="105" id="252">
			<route edges="road_3_4_3 road_3_3_2 road_2_3_1"/>
		</vehicle>
		<vehicle depart="105" id="253">
			<route edges="road_1_4_3 road_1_3_3 road_1_2_3 road_1_1_3"/>
		</vehicle>
		<vehicle depart="108" id="254">
			<route edges="road_0_1_0 road_1_1_0 road_2_1_3"/>
		</vehicle>
		<vehicle depart="108" id="255">
			<route edges="road_0_3_0 road_1_3_0 road_2_3_0 road_3_3_0"/>
		</vehicle>
		<vehicle depart="108" id="256">
			<route edges="road_4_2_2 road_3_2_1 road_3_3_1"/>
		</vehicle>
		<vehicle depart="108" id="257">
			<route edges="road_4_3_2 road_3_3_2 road_2_3_1"/>
		</vehicle>
		<vehicle depart="108" id="258">
			<route edges="road_4_1_2 road_3_1_2 road_2_1_3"/>
		</vehicle>
		<vehicle depart="108" id="259">
			<route edges="road_2_4_3 road_2_3_2 road_1_3_1"/>
		</vehicle>
		<vehicle depart="108" id="260">
			<route edges="road_1_0_1 road_1_1_0 road_2_1_0 road_3_1_0"/>
		</vehicle>
		<vehicle depart="108" id="261">
			<route edges="road_2_0_1 road_2_1_0 road_3_1_0"/>
		</vehicle>
		<vehicle depart="110" id="262">
			<route edges="road_3_4_3 road_3_3_2 road_2_3_1"/>
		</vehicle>
		<vehicle depart="110" id="263">
			<route edges="road_1_4_3 road_1_3_2"/>
		</vehicle>
		<vehicle depart="112" id="264">
			<route edges="road_0_2_0 road_1_2_0 road_2_2_1 road_2_3_2 road_1_3_3 road_1_2_3 road_1_1_2"/>
		</vehicle>
		<vehicle depart="112" id="265">
			<route edges="road_4_2_2 road_3_2_2 road_2_2_1 road_2_3_1"/>
		</vehicle>
		<vehicle depart="112" id="266">
			<route edges="road_4_3_2 road_3_3_1"/>
		</vehicle>
		<vehicle depart="112" id="267">
			<route edges="road_4_1_2 road_3_1_2 road_2_1_1 road_2_2_1 road_2_3_1"/>
		</vehicle>
		<vehicle depart="112" id="268">
			<route edges="road_2_4_3 road_2_3_3 road_2_2_3 road_2_1_2 road_1_1_2"/>
		</vehicle>
		<vehicle depart="112" id="269">
			<route edges="road_3_0_1 road_3_1_2 road_2_1_2 road_1_1_2"/>
		</vehicle>
		<vehicle depart="114" id="270">
			<route edges="road_0_1_0 road_1_1_0 road_2_1_3"/>
		</vehicle>
		<vehicle depart="114" id="271">
			<route edges="road_0_3_0 road_1_3_3 road_1_2_3 road_1_1_3"/>
		</vehicle>
		<vehicle depart="114" id="272">
			<route edges="road_1_0_1 road_1_1_1 road_1_2_1 road_1_3_0 road_2_3_3 road_2_2_2 road_1_2_2"/>
		</vehicle>