<?xml version="1.0" encoding="UTF-8"?>

<!-- generated on 2024-08-23 11:58:19 by Eclipse SUMO netconvert Version 1.11.0
<configuration xmlns:xsi="http://www.w3.org/2001/XMLSchema-instance" xsi:noNamespaceSchemaLocation="http://sumo.dlr.de/xsd/netconvertConfiguration.xsd">

    <input>
        <node-files value="D:\1\thesis3\LibSignal-master\data\raw_data\syn_3x3_gaussian_500_1h\roadnet_3X3.nod.xml"/>
        <edge-files value="D:\1\thesis3\LibSignal-master\data\raw_data\syn_3x3_gaussian_500_1h\roadnet_3X3.edg.xml"/>
        <connection-files value="D:\1\thesis3\LibSignal-master\data\raw_data\syn_3x3_gaussian_500_1h\roadnet_3X3.con.xml"/>
        <tllogic-files value="D:\1\thesis3\LibSignal-master\data\raw_data\syn_3x3_gaussian_500_1h\roadnet_3X3.tll.xml"/>
    </input>

    <output>
        <output-file value="D:\1\thesis3\LibSignal-master\data\raw_data\syn_3x3_gaussian_500_1h\roadnet_3X3.net.xml"/>
    </output>

    <report>
        <aggregate-warnings value="5"/>
    </report>

</configuration>
-->

<net version="1.9" junctionCornerDetail="5" limitTurnSpeed="5.50" xmlns:xsi="http://www.w3.org/2001/XMLSchema-instance" xsi:noNamespaceSchemaLocation="http://sumo.dlr.de/xsd/net_file.xsd">

    <location netOffset="300.00,300.00" convBoundary="0.00,0.00,1200.00,1200.00" origBoundary="-300.00,-300.00,900.00,900.00" projParameter="!"/>

    <edge id=":intersection_0_1_0" function="internal">
        <lane id=":intersection_0_1_0_0" index="0" speed="3.65" length="4.67" shape="0.00,301.60 -1.20,300.80 -1.60,300.00 -1.20,299.20 0.00,298.40"/>
    </edge>
    <edge id=":intersection_0_2_0" function="internal">
        <lane id=":intersection_0_2_0_0" index="0" speed="3.65" length="4.67" shape="0.00,601.60 -1.20,600.80 -1.60,600.00 -1.20,599.20 0.00,598.40"/>
    </edge>
    <edge id=":intersection_0_3_0" function="internal">
        <lane id=":intersection_0_3_0_0" index="0" speed="3.65" length="4.67" shape="0.00,901.60 -1.20,900.80 -1.60,900.00 -1.20,899.20 0.00,898.40"/>
    </edge>
    <edge id=":intersection_1_0_0" function="internal">
        <lane id=":intersection_1_0_0_0" index="0" speed="3.65" length="4.67" shape="298.40,0.00 299.20,-1.20 300.00,-1.60 300.80,-1.20 301.60,0.00"/>
    </edge>
    <edge id=":intersection_1_1_0" function="internal">
        <lane id=":intersection_1_1_0_0" index="0" speed="6.51" length="9.03" shape="292.00,313.60 291.65,311.15 290.60,309.40 288.85,308.35 286.40,308.00"/>
        <lane id=":intersection_1_1_0_1" index="1" speed="7.33" length="11.73" shape="292.00,313.60 291.65,309.75 290.60,307.00 288.85,305.35 286.40,304.80"/>
        <lane id=":intersection_1_1_0_2" index="2" speed="8.10" length="14.57" shape="292.00,313.60 291.65,308.35 290.60,304.60 288.85,302.35 286.40,301.60"/>
    </edge>
    <edge id=":intersection_1_1_3" function="internal">
        <lane id=":intersection_1_1_3_0" index="0" speed="11.11" length="27.37" shape="295.20,313.60 294.70,305.50 293.60,300.00 292.50,294.50 292.00,286.40"/>
        <lane id=":intersection_1_1_3_1" index="1" speed="11.11" length="27.37" shape="295.20,313.60 295.20,286.40"/>
        <lane id=":intersection_1_1_3_2" index="2" speed="11.11" length="27.37" shape="295.20,313.60 295.70,305.50 296.80,300.00 297.90,294.50 298.40,286.40"/>
    </edge>
    <edge id=":intersection_1_1_6" function="internal">
        <lane id=":intersection_1_1_6_0" index="0" speed="11.11" length="29.85" shape="298.40,313.60 299.35,304.15 302.20,297.40 306.95,293.35 313.60,292.00"/>
        <lane id=":intersection_1_1_6_1" index="1" speed="10.88" length="27.14" shape="298.40,313.60 299.35,305.55 302.20,299.80 306.95,296.35 313.60,295.20"/>
        <lane id=":intersection_1_1_6_2" index="2" speed="10.36" length="24.51" shape="298.40,313.60 299.35,306.95 302.20,302.20 306.95,299.35 313.60,298.40"/>
    </edge>
    <edge id=":intersection_1_1_9" function="internal">
        <lane id=":intersection_1_1_9_0" index="0" speed="6.51" length="9.03" shape="313.60,308.00 311.15,308.35 309.40,309.40 308.35,311.15 308.00,313.60"/>
        <lane id=":intersection_1_1_9_1" index="1" speed="7.33" length="11.73" shape="313.60,308.00 309.75,308.35 307.00,309.40 305.35,311.15 304.80,313.60"/>
        <lane id=":intersection_1_1_9_2" index="2" speed="8.10" length="14.57" shape="313.60,308.00 308.35,308.35 304.60,309.40 302.35,311.15 301.60,313.60"/>
    </edge>
    <edge id=":intersection_1_1_12" function="internal">
        <lane id=":intersection_1_1_12_0" index="0" speed="11.11" length="27.37" shape="313.60,304.80 305.50,305.30 300.00,306.40 294.50,307.50 286.40,308.00"/>
        <lane id=":intersection_1_1_12_1" index="1" speed="11.11" length="27.37" shape="313.60,304.80 286.40,304.80"/>
        <lane id=":intersection_1_1_12_2" index="2" speed="11.11" length="27.37" shape="313.60,304.80 305.50,304.30 300.00,303.20 294.50,302.10 286.40,301.60"/>
    </edge>
    <edge id=":intersection_1_1_15" function="internal">
        <lane id=":intersection_1_1_15_0" index="0" speed="11.11" length="29.85" shape="313.60,301.60 304.15,300.65 297.40,297.80 293.35,293.05 292.00,286.40"/>
        <lane id=":intersection_1_1_15_1" index="1" speed="10.88" length="27.14" shape="313.60,301.60 305.55,300.65 299.80,297.80 296.35,293.05 295.20,286.40"/>
        <lane id=":intersection_1_1_15_2" index="2" speed="10.36" length="24.51" shape="313.60,301.60 306.95,300.65 302.20,297.80 299.35,293.05 298.40,286.40"/>
    </edge>
    <edge id=":intersection_1_1_18" function="internal">
        <lane id=":intersection_1_1_18_0" index="0" speed="6.51" length="9.03" shape="308.00,286.40 308.35,288.85 309.40,290.60 311.15,291.65 313.60,292.00"/>
        <lane id=":intersection_1_1_18_1" index="1" speed="7.33" length="11.73" shape="308.00,286.40 308.35,290.25 309.40,293.00 311.15,294.65 313.60,295.20"/>
        <lane id=":intersection_1_1_18_2" index="2" speed="8.10" length="14.57" shape="308.00,286.40 308.35,291.65 309.40,295.40 311.15,297.65 313.60,298.40"/>
    </edge>
    <edge id=":intersection_1_1_21" function="internal">
        <lane id=":intersection_1_1_21_0" index="0" speed="11.11" length="27.37" shape="304.80,286.40 305.30,294.50 306.40,300.00 307.50,305.50 308.00,313.60"/>
        <lane id=":intersection_1_1_21_1" index="1" speed="11.11" length="27.37" shape="304.80,286.40 304.80,313.60"/>
        <lane id=":intersection_1_1_21_2" index="2" speed="11.11" length="27.37" shape="304.80,286.40 304.30,294.50 303.20,300.00 302.10,305.50 301.60,313.60"/>
    </edge>
    <edge id=":intersection_1_1_24" function="internal">
        <lane id=":intersection_1_1_24_0" index="0" speed="11.11" length="29.85" shape="301.60,286.40 300.65,295.85 297.80,302.60 293.05,306.65 286.40,308.00"/>
        <lane id=":intersection_1_1_24_1" index="1" speed="10.88" length="27.14" shape="301.60,286.40 300.65,294.45 297.80,300.20 293.05,303.65 286.40,304.80"/>
        <lane id=":intersection_1_1_24_2" index="2" speed="10.36" length="24.51" shape="301.60,286.40 300.65,293.05 297.80,297.80 293.05,300.65 286.40,301.60"/>
    </edge>
    <edge id=":intersection_1_1_27" function="internal">
        <lane id=":intersection_1_1_27_0" index="0" speed="6.51" length="9.03" shape="286.40,292.00 288.85,291.65 290.60,290.60 291.65,288.85 292.00,286.40"/>
        <lane id=":intersection_1_1_27_1" index="1" speed="7.33" length="11.73" shape="286.40,292.00 290.25,291.65 293.00,290.60 294.65,288.85 295.20,286.40"/>
        <lane id=":intersection_1_1_27_2" index="2" speed="8.10" length="14.57" shape="286.40,292.00 291.65,291.65 295.40,290.60 297.65,288.85 298.40,286.40"/>
    </edge>
    <edge id=":intersection_1_1_30" function="internal">
        <lane id=":intersection_1_1_30_0" index="0" speed="11.11" length="27.37" shape="286.40,295.20 294.50,294.70 300.00,293.60 305.50,292.50 313.60,292.00"/>
        <lane id=":intersection_1_1_30_1" index="1" speed="11.11" length="27.37" shape="286.40,295.20 313.60,295.20"/>
        <lane id=":intersection_1_1_30_2" index="2" speed="11.11" length="27.37" shape="286.40,295.20 294.50,295.70 300.00,296.80 305.50,297.90 313.60,298.40"/>
    </edge>
    <edge id=":intersection_1_1_33" function="internal">
        <lane id=":intersection_1_1_33_0" index="0" speed="11.11" length="29.85" shape="286.40,298.40 295.85,299.35 302.60,302.20 306.65,306.95 308.00,313.60"/>
        <lane id=":intersection_1_1_33_1" index="1" speed="10.88" length="27.14" shape="286.40,298.40 294.45,299.35 300.20,302.20 303.65,306.95 304.80,313.60"/>
        <lane id=":intersection_1_1_33_2" index="2" speed="10.36" length="24.51" shape="286.40,298.40 293.05,299.35 297.80,302.20 300.65,306.95 301.60,313.60"/>
    </edge>
    <edge id=":intersection_1_2_0" function="internal">
        <lane id=":intersection_1_2_0_0" index="0" speed="6.51" length="9.03" shape="292.00,613.60 291.65,611.15 290.60,609.40 288.85,608.35 286.40,608.00"/>
        <lane id=":intersection_1_2_0_1" index="1" speed="7.33" length="11.73" shape="292.00,613.60 291.65,609.75 290.60,607.00 288.85,605.35 286.40,604.80"/>
        <lane id=":intersection_1_2_0_2" index="2" speed="8.10" length="14.57" shape="292.00,613.60 291.65,608.35 290.60,604.60 288.85,602.35 286.40,601.60"/>
    </edge>
    <edge id=":intersection_1_2_3" function="internal">
        <lane id=":intersection_1_2_3_0" index="0" speed="11.11" length="27.37" shape="295.20,613.60 294.70,605.50 293.60,600.00 292.50,594.50 292.00,586.40"/>
        <lane id=":intersection_1_2_3_1" index="1" speed="11.11" length="27.37" shape="295.20,613.60 295.20,586.40"/>
        <lane id=":intersection_1_2_3_2" index="2" speed="11.11" length="27.37" shape="295.20,613.60 295.70,605.50 296.80,600.00 297.90,594.50 298.40,586.40"/>
    </edge>
    <edge id=":intersection_1_2_6" function="internal">
        <lane id=":intersection_1_2_6_0" index="0" speed="11.11" length="29.85" shape="298.40,613.60 299.35,604.15 302.20,597.40 306.95,593.35 313.60,592.00"/>
        <lane id=":intersection_1_2_6_1" index="1" speed="10.88" length="27.14" shape="298.40,613.60 299.35,605.55 302.20,599.80 306.95,596.35 313.60,595.20"/>
        <lane id=":intersection_1_2_6_2" index="2" speed="10.36" length="24.51" shape="298.40,613.60 299.35,606.95 302.20,602.20 306.95,599.35 313.60,598.40"/>
    </edge>
    <edge id=":intersection_1_2_9" function="internal">
        <lane id=":intersection_1_2_9_0" index="0" speed="6.51" length="9.03" shape="313.60,608.00 311.15,608.35 309.40,609.40 308.35,611.15 308.00,613.60"/>
        <lane id=":intersection_1_2_9_1" index="1" speed="7.33" length="11.73" shape="313.60,608.00 309.75,608.35 307.00,609.40 305.35,611.15 304.80,613.60"/>
        <lane id=":intersection_1_2_9_2" index="2" speed="8.10" length="14.57" shape="313.60,608.00 308.35,608.35 304.60,609.40 302.35,611.15 301.60,613.60"/>
    </edge>
    <edge id=":intersection_1_2_12" function="internal">
        <lane id=":intersection_1_2_12_0" index="0" speed="11.11" length="27.37" shape="313.60,604.80 305.50,605.30 300.00,606.40 294.50,607.50 286.40,608.00"/>
        <lane id=":intersection_1_2_12_1" index="1" speed="11.11" length="27.37" shape="313.60,604.80 286.40,604.80"/>
        <lane id=":intersection_1_2_12_2" index="2" speed="11.11" length="27.37" shape="313.60,604.80 305.50,604.30 300.00,603.20 294.50,602.10 286.40,601.60"/>
    </edge>
    <edge id=":intersection_1_2_15" function="internal">
        <lane id=":intersection_1_2_15_0" index="0" speed="11.11" length="29.85" shape="313.60,601.60 304.15,600.65 297.40,597.80 293.35,593.05 292.00,586.40"/>
        <lane id=":intersection_1_2_15_1" index="1" speed="10.88" length="27.14" shape="313.60,601.60 305.55,600.65 299.80,597.80 296.35,593.05 295.20,586.40"/>
        <lane id=":intersection_1_2_15_2" index="2" speed="10.36" length="24.51" shape="313.60,601.60 306.95,600.65 302.20,597.80 299.35,593.05 298.40,586.40"/>
    </edge>
    <edge id=":intersection_1_2_18" function="internal">
        <lane id=":intersection_1_2_18_0" index="0" speed="6.51" length="9.03" shape="308.00,586.40 308.35,588.85 309.40,590.60 311.15,591.65 313.60,592.00"/>
        <lane id=":intersection_1_2_18_1" index="1" speed="7.33" length="11.73" shape="308.00,586.40 308.35,590.25 309.40,593.00 311.15,594.65 313.60,595.20"/>
        <lane id=":intersection_1_2_18_2" index="2" speed="8.10" length="14.57" shape="308.00,586.40 308.35,591.65 309.40,595.40 311.15,597.65 313.60,598.40"/>
    </edge>
    <edge id=":intersection_1_2_21" function="internal">
        <lane id=":intersection_1_2_21_0" index="0" speed="11.11" length="27.37" shape="304.80,586.40 305.30,594.50 306.40,600.00 307.50,605.50 308.00,613.60"/>
        <lane id=":intersection_1_2_21_1" index="1" speed="11.11" length="27.37" shape="304.80,586.40 304.80,613.60"/>
        <lane id=":intersection_1_2_21_2" index="2" speed="11.11" length="27.37" shape="304.80,586.40 304.30,594.50 303.20,600.00 302.10,605.50 301.60,613.60"/>
    </edge>
    <edge id=":intersection_1_2_24" function="internal">
        <lane id=":intersection_1_2_24_0" index="0" speed="11.11" length="29.85" shape="301.60,586.40 300.65,595.85 297.80,602.60 293.05,606.65 286.40,608.00"/>
        <lane id=":intersection_1_2_24_1" index="1" speed="10.88" length="27.14" shape="301.60,586.40 300.65,594.45 297.80,600.20 293.05,603.65 286.40,604.80"/>
        <lane id=":intersection_1_2_24_2" index="2" speed="10.36" length="24.51" shape="301.60,586.40 300.65,593.05 297.80,597.80 293.05,600.65 286.40,601.60"/>
    </edge>
    <edge id=":intersection_1_2_27" function="internal">
        <lane id=":intersection_1_2_27_0" index="0" speed="6.51" length="9.03" shape="286.40,592.00 288.85,591.65 290.60,590.60 291.65,588.85 292.00,586.40"/>
        <lane id=":intersection_1_2_27_1" index="1" speed="7.33" length="11.73" shape="286.40,592.00 290.25,591.65 293.00,590.60 294.65,588.85 295.20,586.40"/>
        <lane id=":intersection_1_2_27_2" index="2" speed="8.10" length="14.57" shape="286.40,592.00 291.65,591.65 295.40,590.60 297.65,588.85 298.40,586.40"/>
    </edge>
    <edge id=":intersection_1_2_30" function="internal">
        <lane id=":intersection_1_2_30_0" index="0" speed="11.11" length="27.37" shape="286.40,595.20 294.50,594.70 300.00,593.60 305.50,592.50 313.60,592.00"/>
        <lane id=":intersection_1_2_30_1" index="1" speed="11.11" length="27.37" shape="286.40,595.20 313.60,595.20"/>
        <lane id=":intersection_1_2_30_2" index="2" speed="11.11" length="27.37" shape="286.40,595.20 294.50,595.70 300.00,596.80 305.50,597.90 313.60,598.40"/>
    </edge>
    <edge id=":intersection_1_2_33" function="internal">
        <lane id=":intersection_1_2_33_0" index="0" speed="11.11" length="29.85" shape="286.40,598.40 295.85,599.35 302.60,602.20 306.65,606.95 308.00,613.60"/>
        <lane id=":intersection_1_2_33_1" index="1" speed="10.88" length="27.14" shape="286.40,598.40 294.45,599.35 300.20,602.20 303.65,606.95 304.80,613.60"/>
        <lane id=":intersection_1_2_33_2" index="2" speed="10.36" length="24.51" shape="286.40,598.40 293.05,599.35 297.80,602.20 300.65,606.95 301.60,613.60"/>
    </edge>
    <edge id=":intersection_1_3_0" function="internal">
        <lane id=":intersection_1_3_0_0" index="0" speed="6.51" length="9.03" shape="292.00,913.60 291.65,911.15 290.60,909.40 288.85,908.35 286.40,908.00"/>
        <lane id=":intersection_1_3_0_1" index="1" speed="7.33" length="11.73" shape="292.00,913.60 291.65,909.75 290.60,907.00 288.85,905.35 286.40,904.80"/>
        <lane id=":intersection_1_3_0_2" index="2" speed="8.10" length="14.57" shape="292.00,913.60 291.65,908.35 290.60,904.60 288.85,902.35 286.40,901.60"/>
    </edge>
    <edge id=":intersection_1_3_3" function="internal">
        <lane id=":intersection_1_3_3_0" index="0" speed="11.11" length="27.37" shape="295.20,913.60 294.70,905.50 293.60,900.00 292.50,894.50 292.00,886.40"/>
        <lane id=":intersection_1_3_3_1" index="1" speed="11.11" length="27.37" shape="295.20,913.60 295.20,886.40"/>
        <lane id=":intersection_1_3_3_2" index="2" speed="11.11" length="27.37" shape="295.20,913.60 295.70,905.50 296.80,900.00 297.90,894.50 298.40,886.40"/>
    </edge>
    <edge id=":intersection_1_3_6" function="internal">
        <lane id=":intersection_1_3_6_0" index="0" speed="11.11" length="29.85" shape="298.40,913.60 299.35,904.15 302.20,897.40 306.95,893.35 313.60,892.00"/>
        <lane id=":intersection_1_3_6_1" index="1" speed="10.88" length="27.14" shape="298.40,913.60 299.35,905.55 302.20,899.80 306.95,896.35 313.60,895.20"/>
        <lane id=":intersection_1_3_6_2" index="2" speed="10.36" length="24.51" shape="298.40,913.60 299.35,906.95 302.20,902.20 306.95,899.35 313.60,898.40"/>
    </edge>
    <edge id=":intersection_1_3_9" function="internal">
        <lane id=":intersection_1_3_9_0" index="0" speed="6.51" length="9.03" shape="313.60,908.00 311.15,908.35 309.40,909.40 308.35,911.15 308.00,913.60"/>
        <lane id=":intersection_1_3_9_1" index="1" speed="7.33" length="11.73" shape="313.60,908.00 309.75,908.35 307.00,909.40 305.35,911.15 304.80,913.60"/>
        <lane id=":intersection_1_3_9_2" index="2" speed="8.10" length="14.57" shape="313.60,908.00 308.35,908.35 304.60,909.40 302.35,911.15 301.60,913.60"/>
    </edge>
    <edge id=":intersection_1_3_12" function="internal">
        <lane id=":intersection_1_3_12_0" index="0" speed="11.11" length="27.37" shape="313.60,904.80 305.50,905.30 300.00,906.40 294.50,907.50 286.40,908.00"/>
        <lane id=":intersection_1_3_12_1" index="1" speed="11.11" length="27.37" shape="313.60,904.80 286.40,904.80"/>
        <lane id=":intersection_1_3_12_2" index="2" speed="11.11" length="27.37" shape="313.60,904.80 305.50,904.30 300.00,903.20 294.50,902.10 286.40,901.60"/>
    </edge>
    <edge id=":intersection_1_3_15" function="internal">
        <lane id=":intersection_1_3_15_0" index="0" speed="11.11" length="29.85" shape="313.60,901.60 304.15,900.65 297.40,897.80 293.35,893.05 292.00,886.40"/>
        <lane id=":intersection_1_3_15_1" index="1" speed="10.88" length="27.14" shape="313.60,901.60 305.55,900.65 299.80,897.80 296.35,893.05 295.20,886.40"/>
        <lane id=":intersection_1_3_15_2" index="2" speed="10.36" length="24.51" shape="313.60,901.60 306.95,900.65 302.20,897.80 299.35,893.05 298.40,886.40"/>
    </edge>
    <edge id=":intersection_1_3_18" function="internal">
        <lane id=":intersection_1_3_18_0" index="0" speed="6.51" length="9.03" shape="308.00,886.40 308.35,888.85 309.40,890.60 311.15,891.65 313.60,892.00"/>
        <lane id=":intersection_1_3_18_1" index="1" speed="7.33" length="11.73" shape="308.00,886.40 308.35,890.25 309.40,893.00 311.15,894.65 313.60,895.20"/>
        <lane id=":intersection_1_3_18_2" index="2" speed="8.10" length="14.57" shape="308.00,886.40 308.35,891.65 309.40,895.40 311.15,897.65 313.60,898.40"/>
    </edge>
    <edge id=":intersection_1_3_21" function="internal">
        <lane id=":intersection_1_3_21_0" index="0" speed="11.11" length="27.37" shape="304.80,886.40 305.30,894.50 306.40,900.00 307.50,905.50 308.00,913.60"/>
        <lane id=":intersection_1_3_21_1" index="1" speed="11.11" length="27.37" shape="304.80,886.40 304.80,913.60"/>
        <lane id=":intersection_1_3_21_2" index="2" speed="11.11" length="27.37" shape="304.80,886.40 304.30,894.50 303.20,900.00 302.10,905.50 301.60,913.60"/>
    </edge>
    <edge id=":intersection_1_3_24" function="internal">
        <lane id=":intersection_1_3_24_0" index="0" speed="11.11" length="29.85" shape="301.60,886.40 300.65,895.85 297.80,902.60 293.05,906.65 286.40,908.00"/>
        <lane id=":intersection_1_3_24_1" index="1" speed="10.88" length="27.14" shape="301.60,886.40 300.65,894.45 297.80,900.20 293.05,903.65 286.40,904.80"/>
        <lane id=":intersection_1_3_24_2" index="2" speed="10.36" length="24.51" shape="301.60,886.40 300.65,893.05 297.80,897.80 293.05,900.65 286.40,901.60"/>
    </edge>
    <edge id=":intersection_1_3_27" function="internal">
        <lane id=":intersection_1_3_27_0" index="0" speed="6.51" length="9.03" shape="286.40,892.00 288.85,891.65 290.60,890.60 291.65,888.85 292.00,886.40"/>
        <lane id=":intersection_1_3_27_1" index="1" speed="7.33" length="11.73" shape="286.40,892.00 290.25,891.65 293.00,890.60 294.65,888.85 295.20,886.40"/>
        <lane id=":intersection_1_3_27_2" index="2" speed="8.10" length="14.57" shape="286.40,892.00 291.65,891.65 295.40,890.60 297.65,888.85 298.40,886.40"/>
    </edge>
    <edge id=":intersection_1_3_30" function="internal">
        <lane id=":intersection_1_3_30_0" index="0" speed="11.11" length="27.37" shape="286.40,895.20 294.50,894.70 300.00,893.60 305.50,892.50 313.60,892.00"/>
        <lane id=":intersection_1_3_30_1" index="1" speed="11.11" length="27.37" shape="286.40,895.20 313.60,895.20"/>
        <lane id=":intersection_1_3_30_2" index="2" speed="11.11" length="27.37" shape="286.40,895.20 294.50,895.70 300.00,896.80 305.50,897.90 313.60,898.40"/>
    </edge>
    <edge id=":intersection_1_3_33" function="internal">
        <lane id=":intersection_1_3_33_0" index="0" speed="11.11" length="29.85" shape="286.40,898.40 295.85,899.35 302.60,902.20 306.65,906.95 308.00,913.60"/>
        <lane id=":intersection_1_3_33_1" index="1" speed="10.88" length="27.14" shape="286.40,898.40 294.45,899.35 300.20,902.20 303.65,906.95 304.80,913.60"/>
        <lane id=":intersection_1_3_33_2" index="2" speed="10.36" length="24.51" shape="286.40,898.40 293.05,899.35 297.80,902.20 300.65,906.95 301.60,913.60"/>
    </edge>
    <edge id=":intersection_1_4_0" function="internal">
        <lane id=":intersection_1_4_0_0" index="0" speed="3.65" length="4.67" shape="301.60,1200.00 300.80,1201.20 300.00,1201.60 299.20,1201.20 298.40,1200.00"/>
    </edge>
    <edge id=":intersection_2_0_0" function="internal">
        <lane id=":intersection_2_0_0_0" index="0" speed="3.65" length="4.67" shape="598.40,0.00 599.20,-1.20 600.00,-1.60 600.80,-1.20 601.60,0.00"/>
    </edge>
    <edge id=":intersection_2_1_0" function="internal">
        <lane id=":intersection_2_1_0_0" index="0" speed="6.51" length="9.03" shape="592.00,313.60 591.65,311.15 590.60,309.40 588.85,308.35 586.40,308.00"/>
        <lane id=":intersection_2_1_0_1" index="1" speed="7.33" length="11.73" shape="592.00,313.60 591.65,309.75 590.60,307.00 588.85,305.35 586.40,304.80"/>
        <lane id=":intersection_2_1_0_2" index="2" speed="8.10" length="14.57" shape="592.00,313.60 591.65,308.35 590.60,304.60 588.85,302.35 586.40,301.60"/>
    </edge>
    <edge id=":intersection_2_1_3" function="internal">
        <lane id=":intersection_2_1_3_0" index="0" speed="11.11" length="27.37" shape="595.20,313.60 594.70,305.50 593.60,300.00 592.50,294.50 592.00,286.40"/>
        <lane id=":intersection_2_1_3_1" index="1" speed="11.11" length="27.37" shape="595.20,313.60 595.20,286.40"/>
        <lane id=":intersection_2_1_3_2" index="2" speed="11.11" length="27.37" shape="595.20,313.60 595.70,305.50 596.80,300.00 597.90,294.50 598.40,286.40"/>
    </edge>
    <edge id=":intersection_2_1_6" function="internal">
        <lane id=":intersection_2_1_6_0" index="0" speed="11.11" length="29.85" shape="598.40,313.60 599.35,304.15 602.20,297.40 606.95,293.35 613.60,292.00"/>
        <lane id=":intersection_2_1_6_1" index="1" speed="10.88" length="27.14" shape="598.40,313.60 599.35,305.55 602.20,299.80 606.95,296.35 613.60,295.20"/>
        <lane id=":intersection_2_1_6_2" index="2" speed="10.36" length="24.51" shape="598.40,313.60 599.35,306.95 602.20,302.20 606.95,299.35 613.60,298.40"/>
    </edge>
    <edge id=":intersection_2_1_9" function="internal">
        <lane id=":intersection_2_1_9_0" index="0" speed="6.51" length="9.03" shape="613.60,308.00 611.15,308.35 609.40,309.40 608.35,311.15 608.00,313.60"/>
        <lane id=":intersection_2_1_9_1" index="1" speed="7.33" length="11.73" shape="613.60,308.00 609.75,308.35 607.00,309.40 605.35,311.15 604.80,313.60"/>
        <lane id=":intersection_2_1_9_2" index="2" speed="8.10" length="14.57" shape="613.60,308.00 608.35,308.35 604.60,309.40 602.35,311.15 601.60,313.60"/>
    </edge>
    <edge id=":intersection_2_1_12" function="internal">
        <lane id=":intersection_2_1_12_0" index="0" speed="11.11" length="27.37" shape="613.60,304.80 605.50,305.30 600.00,306.40 594.50,307.50 586.40,308.00"/>
        <lane id=":intersection_2_1_12_1" index="1" speed="11.11" length="27.37" shape="613.60,304.80 586.40,304.80"/>
        <lane id=":intersection_2_1_12_2" index="2" speed="11.11" length="27.37" shape="613.60,304.80 605.50,304.30 600.00,303.20 594.50,302.10 586.40,301.60"/>
    </edge>
    <edge id=":intersection_2_1_15" function="internal">
        <lane id=":intersection_2_1_15_0" index="0" speed="11.11" length="29.85" shape="613.60,301.60 604.15,300.65 597.40,297.80 593.35,293.05 592.00,286.40"/>
        <lane id=":intersection_2_1_15_1" index="1" speed="10.88" length="27.14" shape="613.60,301.60 605.55,300.65 599.80,297.80 596.35,293.05 595.20,286.40"/>
        <lane id=":intersection_2_1_15_2" index="2" speed="10.36" length="24.51" shape="613.60,301.60 606.95,300.65 602.20,297.80 599.35,293.05 598.40,286.40"/>
    </edge>
    <edge id=":intersection_2_1_18" function="internal">
        <lane id=":intersection_2_1_18_0" index="0" speed="6.51" length="9.03" shape="608.00,286.40 608.35,288.85 609.40,290.60 611.15,291.65 613.60,292.00"/>
        <lane id=":intersection_2_1_18_1" index="1" speed="7.33" length="11.73" shape="608.00,286.40 608.35,290.25 609.40,293.00 611.15,294.65 613.60,295.20"/>
        <lane id=":intersection_2_1_18_2" index="2" speed="8.10" length="14.57" shape="608.00,286.40 608.35,291.65 609.40,295.40 611.15,297.65 613.60,298.40"/>
    </edge>
    <edge id=":intersection_2_1_21" function="internal">
        <lane id=":intersection_2_1_21_0" index="0" speed="11.11" length="27.37" shape="604.80,286.40 605.30,294.50 606.40,300.00 607.50,305.50 608.00,313.60"/>
        <lane id=":intersection_2_1_21_1" index="1" speed="11.11" length="27.37" shape="604.80,286.40 604.80,313.60"/>
        <lane id=":intersection_2_1_21_2" index="2" speed="11.11" length="27.37" shape="604.80,286.40 604.30,294.50 603.20,300.00 602.10,305.50 601.60,313.60"/>
    </edge>
    <edge id=":intersection_2_1_24" function="internal">
        <lane id=":intersection_2_1_24_0" index="0" speed="11.11" length="29.85" shape="601.60,286.40 600.65,295.85 597.80,302.60 593.05,306.65 586.40,308.00"/>
        <lane id=":intersection_2_1_24_1" index="1" speed="10.88" length="27.14" shape="601.60,286.40 600.65,294.45 597.80,300.20 593.05,303.65 586.40,304.80"/>
        <lane id=":intersection_2_1_24_2" index="2" speed="10.36" length="24.51" shape="601.60,286.40 600.65,293.05 597.80,297.80 593.05,300.65 586.40,301.60"/>
    </edge>
    <edge id=":intersection_2_1_27" function="internal">
        <lane id=":intersection_2_1_27_0" index="0" speed="6.51" length="9.03" shape="586.40,292.00 588.85,291.65 590.60,290.60 591.65,288.85 592.00,286.40"/>
        <lane id=":intersection_2_1_27_1" index="1" speed="7.33" length="11.73" shape="586.40,292.00 590.25,291.65 593.00,290.60 594.65,288.85 595.20,286.40"/>
        <lane id=":intersection_2_1_27_2" index="2" speed="8.10" length="14.57" shape="586.40,292.00 591.65,291.65 595.40,290.60 597.65,288.85 598.40,286.40"/>
    </edge>
    <edge id=":intersection_2_1_30" function="internal">
        <lane id=":intersection_2_1_30_0" index="0" speed="11.11" length="27.37" shape="586.40,295.20 594.50,294.70 600.00,293.60 605.50,292.50 613.60,292.00"/>
        <lane id=":intersection_2_1_30_1" index="1" speed="11.11" length="27.37" shape="586.40,295.20 613.60,295.20"/>
        <lane id=":intersection_2_1_30_2" index="2" speed="11.11" length="27.37" shape="586.40,295.20 594.50,295.70 600.00,296.80 605.50,297.90 613.60,298.40"/>
    </edge>
    <edge id=":intersection_2_1_33" function="internal">
        <lane id=":intersection_2_1_33_0" index="0" speed="11.11" length="29.85" shape="586.40,298.40 595.85,299.35 602.60,302.20 606.65,306.95 608.00,313.60"/>
        <lane id=":intersection_2_1_33_1" index="1" speed="10.88" length="27.14" shape="586.40,298.40 594.45,299.35 600.20,302.20 603.65,306.95 604.80,313.60"/>
        <lane id=":intersection_2_1_33_2" index="2" speed="10.36" length="24.51" shape="586.40,298.40 593.05,299.35 597.80,302.20 600.65,306.95 601.60,313.60"/>
    </edge>
    <edge id=":intersection_2_2_0" function="internal">
        <lane id=":intersection_2_2_0_0" index="0" speed="6.51" length="9.03" shape="592.00,613.60 591.65,611.15 590.60,609.40 588.85,608.35 586.40,608.00"/>
        <lane id=":intersection_2_2_0_1" index="1" speed="7.33" length="11.73" shape="592.00,613.60 591.65,609.75 590.60,607.00 588.85,605.35 586.40,604.80"/>
        <lane id=":intersection_2_2_0_2" index="2" speed="8.10" length="14.57" shape="592.00,613.60 591.65,608.35 590.60,604.60 588.85,602.35 586.40,601.60"/>
    </edge>
    <edge id=":intersection_2_2_3" function="internal">
        <lane id=":intersection_2_2_3_0" index="0" speed="11.11" length="27.37" shape="595.20,613.60 594.70,605.50 593.60,600.00 592.50,594.50 592.00,586.40"/>
        <lane id=":intersection_2_2_3_1" index="1" speed="11.11" length="27.37" shape="595.20,613.60 595.20,586.40"/>
        <lane id=":intersection_2_2_3_2" index="2" speed="11.11" length="27.37" shape="595.20,613.60 595.70,605.50 596.80,600.00 597.90,594.50 598.40,586.40"/>
    </edge>
    <edge id=":intersection_2_2_6" function="internal">
        <lane id=":intersection_2_2_6_0" index="0" speed="11.11" length="29.85" shape="598.40,613.60 599.35,604.15 602.20,597.40 606.95,593.35 613.60,592.00"/>
        <lane id=":intersection_2_2_6_1" index="1" speed="10.88" length="27.14" shape="598.40,613.60 599.35,605.55 602.20,599.80 606.95,596.35 613.60,595.20"/>
        <lane id=":intersection_2_2_6_2" index="2" speed="10.36" length="24.51" shape="598.40,613.60 599.35,606.95 602.20,602.20 606.95,599.35 613.60,598.40"/>
    </edge>