<?xml version="1.0" encoding="UTF-8"?>

<!-- generated on 2024-05-15 12:08:53 by Eclipse SUMO netedit Version 1.11.0
<configuration xmlns:xsi="http://www.w3.org/2001/XMLSchema-instance" xsi:noNamespaceSchemaLocation="http://sumo.dlr.de/xsd/netconvertConfiguration.xsd">

    <input>
        <sumo-net-file value="D:\coding\v3\res\hangzhou\SUMO_roadnet_4_4_4_phase_Right_Green_turn.net.xml"/>
    </input>

    <output>
        <output-file value="D:\coding\v3\res\hangzhou\SUMO_roadnet_4_4_4_phase_Right_Green_turn.net.xml"/>
    </output>

    <processing>
        <geometry.min-radius.fix.railways value="false"/>
        <geometry.max-grade.fix value="false"/>
        <offset.disable-normalization value="true"/>
        <lefthand value="false"/>
    </processing>

    <junctions>
        <no-turnarounds value="true"/>
        <junctions.corner-detail value="5"/>
        <junctions.limit-turn-speed value="5.5"/>
        <rectangular-lane-cut value="false"/>
    </junctions>

    <pedestrian>
        <walkingareas value="false"/>
    </pedestrian>

    <report>
        <aggregate-warnings value="5"/>
    </report>

</configuration>
-->

<net version="1.9" junctionCornerDetail="5" limitTurnSpeed="5.50" xmlns:xsi="http://www.w3.org/2001/XMLSchema-instance" xsi:noNamespaceSchemaLocation="http://sumo.dlr.de/xsd/net_file.xsd">

    <location netOffset="800.00,600.00" convBoundary="0.00,0.00,4000.00,3000.00" origBoundary="-800.00,-600.00,3200.00,2400.00" projParameter="!"/>

    <edge id=":intersection_0_1_0" function="internal">
        <lane id=":intersection_0_1_0_0" index="0" speed="3.65" length="4.67" shape="0.00,601.60 -1.20,600.80 -1.60,600.00 -1.20,599.20 0.00,598.40"/>
    </edge>
    <edge id=":intersection_0_2_0" function="internal">
        <lane id=":intersection_0_2_0_0" index="0" speed="3.65" length="4.67" shape="0.00,1201.60 -1.20,1200.80 -1.60,1200.00 -1.20,1199.20 0.00,1198.40"/>
    </edge>
    <edge id=":intersection_0_3_0" function="internal">
        <lane id=":intersection_0_3_0_0" index="0" speed="3.65" length="4.67" shape="0.00,1801.60 -1.20,1800.80 -1.60,1800.00 -1.20,1799.20 0.00,1798.40"/>
    </edge>
    <edge id=":intersection_0_4_0" function="internal">
        <lane id=":intersection_0_4_0_0" index="0" speed="3.65" length="4.67" shape="0.00,2401.60 -1.20,2400.80 -1.60,2400.00 -1.20,2399.20 0.00,2398.40"/>
    </edge>
    <edge id=":intersection_1_0_0" function="internal">
        <lane id=":intersection_1_0_0_0" index="0" speed="3.65" length="4.67" shape="798.40,0.00 799.20,-1.20 800.00,-1.60 800.80,-1.20 801.60,0.00"/>
    </edge>
    <edge id=":intersection_1_1_0" function="internal">
        <lane id=":intersection_1_1_0_0" index="0" speed="6.51" length="9.03" shape="792.00,613.60 791.65,611.15 790.60,609.40 788.85,608.35 786.40,608.00"/>
        <lane id=":intersection_1_1_0_1" index="1" speed="7.33" length="11.73" shape="792.00,613.60 791.65,609.75 790.60,607.00 788.85,605.35 786.40,604.80"/>
        <lane id=":intersection_1_1_0_2" index="2" speed="8.10" length="14.57" shape="792.00,613.60 791.65,608.35 790.60,604.60 788.85,602.35 786.40,601.60"/>
    </edge>
    <edge id=":intersection_1_1_3" function="internal">
        <lane id=":intersection_1_1_3_0" index="0" speed="11.11" length="27.37" shape="795.20,613.60 794.70,605.50 793.60,600.00 792.50,594.50 792.00,586.40"/>
        <lane id=":intersection_1_1_3_1" index="1" speed="11.11" length="27.37" shape="795.20,613.60 795.20,586.40"/>
        <lane id=":intersection_1_1_3_2" index="2" speed="11.11" length="27.37" shape="795.20,613.60 795.70,605.50 796.80,600.00 797.90,594.50 798.40,586.40"/>
    </edge>
    <edge id=":intersection_1_1_6" function="internal">
        <lane id=":intersection_1_1_6_0" index="0" speed="11.11" length="16.28" shape="798.40,613.60 799.35,604.15 801.99,597.90"/>
        <lane id=":intersection_1_1_6_1" index="1" speed="10.88" length="12.29" shape="798.40,613.60 799.35,605.55 801.21,601.80"/>
        <lane id=":intersection_1_1_6_2" index="2" speed="10.36" length="9.13" shape="798.40,613.60 799.35,606.95 800.59,604.88"/>
    </edge>
    <edge id=":intersection_1_1_9" function="internal">
        <lane id=":intersection_1_1_9_0" index="0" speed="3.65" length="2.44" shape="798.40,613.60 799.20,612.40 800.00,612.00 800.09,612.05"/>
    </edge>
    <edge id=":intersection_1_1_40" function="internal">
        <lane id=":intersection_1_1_40_0" index="0" speed="11.11" length="13.57" shape="801.99,597.90 802.20,597.40 806.95,593.35 813.60,592.00"/>
    </edge>
    <edge id=":intersection_1_1_41" function="internal">
        <lane id=":intersection_1_1_41_0" index="0" speed="10.88" length="14.85" shape="801.21,601.80 802.20,599.80 806.95,596.35 813.60,595.20"/>
    </edge>
    <edge id=":intersection_1_1_42" function="internal">
        <lane id=":intersection_1_1_42_0" index="0" speed="10.36" length="15.38" shape="800.59,604.88 802.20,602.20 806.95,599.35 813.60,598.40"/>
    </edge>
    <edge id=":intersection_1_1_43" function="internal">
        <lane id=":intersection_1_1_43_0" index="0" speed="3.65" length="2.23" shape="800.09,612.05 800.80,612.40 801.60,613.60"/>
    </edge>
    <edge id=":intersection_1_1_10" function="internal">
        <lane id=":intersection_1_1_10_0" index="0" speed="6.51" length="9.03" shape="813.60,608.00 811.15,608.35 809.40,609.40 808.35,611.15 808.00,613.60"/>
        <lane id=":intersection_1_1_10_1" index="1" speed="7.33" length="11.73" shape="813.60,608.00 809.75,608.35 807.00,609.40 805.35,611.15 804.80,613.60"/>
        <lane id=":intersection_1_1_10_2" index="2" speed="8.10" length="14.57" shape="813.60,608.00 808.35,608.35 804.60,609.40 802.35,611.15 801.60,613.60"/>
    </edge>
    <edge id=":intersection_1_1_13" function="internal">
        <lane id=":intersection_1_1_13_0" index="0" speed="11.11" length="27.37" shape="813.60,604.80 805.50,605.30 800.00,606.40 794.50,607.50 786.40,608.00"/>
        <lane id=":intersection_1_1_13_1" index="1" speed="11.11" length="27.37" shape="813.60,604.80 786.40,604.80"/>
        <lane id=":intersection_1_1_13_2" index="2" speed="11.11" length="27.37" shape="813.60,604.80 805.50,604.30 800.00,603.20 794.50,602.10 786.40,601.60"/>
    </edge>
    <edge id=":intersection_1_1_16" function="internal">
        <lane id=":intersection_1_1_16_0" index="0" speed="11.11" length="16.28" shape="813.60,601.60 804.15,600.65 797.90,598.01"/>
        <lane id=":intersection_1_1_16_1" index="1" speed="10.88" length="12.29" shape="813.60,601.60 805.55,600.65 801.80,598.79"/>
        <lane id=":intersection_1_1_16_2" index="2" speed="10.36" length="9.13" shape="813.60,601.60 806.95,600.65 804.88,599.41"/>
    </edge>
    <edge id=":intersection_1_1_19" function="internal">
        <lane id=":intersection_1_1_19_0" index="0" speed="3.65" length="2.44" shape="813.60,601.60 812.40,600.80 812.00,600.00 812.05,599.91"/>
    </edge>
    <edge id=":intersection_1_1_44" function="internal">
        <lane id=":intersection_1_1_44_0" index="0" speed="11.11" length="13.57" shape="797.90,598.01 797.40,597.80 793.35,593.05 792.00,586.40"/>
    </edge>
    <edge id=":intersection_1_1_45" function="internal">
        <lane id=":intersection_1_1_45_0" index="0" speed="10.88" length="14.85" shape="801.80,598.79 799.80,597.80 796.35,593.05 795.20,586.40"/>
    </edge>
    <edge id=":intersection_1_1_46" function="internal">
        <lane id=":intersection_1_1_46_0" index="0" speed="10.36" length="15.38" shape="804.88,599.41 802.20,597.80 799.35,593.05 798.40,586.40"/>
    </edge>
    <edge id=":intersection_1_1_47" function="internal">
        <lane id=":intersection_1_1_47_0" index="0" speed="3.65" length="2.23" shape="812.05,599.91 812.40,599.20 813.60,598.40"/>
    </edge>
    <edge id=":intersection_1_1_20" function="internal">
        <lane id=":intersection_1_1_20_0" index="0" speed="6.51" length="9.03" shape="808.00,586.40 808.35,588.85 809.40,590.60 811.15,591.65 813.60,592.00"/>
        <lane id=":intersection_1_1_20_1" index="1" speed="7.33" length="11.73" shape="808.00,586.40 808.35,590.25 809.40,593.00 811.15,594.65 813.60,595.20"/>
        <lane id=":intersection_1_1_20_2" index="2" speed="8.10" length="14.57" shape="808.00,586.40 808.35,591.65 809.40,595.40 811.15,597.65 813.60,598.40"/>
    </edge>
    <edge id=":intersection_1_1_23" function="internal">
        <lane id=":intersection_1_1_23_0" index="0" speed="11.11" length="27.37" shape="804.80,586.40 805.30,594.50 806.40,600.00 807.50,605.50 808.00,613.60"/>
        <lane id=":intersection_1_1_23_1" index="1" speed="11.11" length="27.37" shape="804.80,586.40 804.80,613.60"/>
        <lane id=":intersection_1_1_23_2" index="2" speed="11.11" length="27.37" shape="804.80,586.40 804.30,594.50 803.20,600.00 802.10,605.50 801.60,613.60"/>
    </edge>
    <edge id=":intersection_1_1_26" function="internal">
        <lane id=":intersection_1_1_26_0" index="0" speed="11.11" length="16.28" shape="801.60,586.40 800.65,595.85 798.01,602.10"/>
        <lane id=":intersection_1_1_26_1" index="1" speed="10.88" length="12.29" shape="801.60,586.40 800.65,594.45 798.79,598.20"/>
        <lane id=":intersection_1_1_26_2" index="2" speed="10.36" length="9.13" shape="801.60,586.40 800.65,593.05 799.41,595.12"/>
    </edge>
    <edge id=":intersection_1_1_29" function="internal">
        <lane id=":intersection_1_1_29_0" index="0" speed="3.65" length="2.44" shape="801.60,586.40 800.80,587.60 800.00,588.00 799.91,587.95"/>
    </edge>
    <edge id=":intersection_1_1_48" function="internal">
        <lane id=":intersection_1_1_48_0" index="0" speed="11.11" length="13.57" shape="798.01,602.10 797.80,602.60 793.05,606.65 786.40,608.00"/>
    </edge>
    <edge id=":intersection_1_1_49" function="internal">
        <lane id=":intersection_1_1_49_0" index="0" speed="10.88" length="14.85" shape="798.79,598.20 797.80,600.20 793.05,603.65 786.40,604.80"/>
    </edge>
    <edge id=":intersection_1_1_50" function="internal">
        <lane id=":intersection_1_1_50_0" index="0" speed="10.36" length="15.38" shape="799.41,595.12 797.80,597.80 793.05,600.65 786.40,601.60"/>
    </edge>
    <edge id=":intersection_1_1_51" function="internal">
        <lane id=":intersection_1_1_51_0" index="0" speed="3.65" length="2.23" shape="799.91,587.95 799.20,587.60 798.40,586.40"/>
    </edge>
    <edge id=":intersection_1_1_30" function="internal">
        <lane id=":intersection_1_1_30_0" index="0" speed="6.51" length="9.03" shape="786.40,592.00 788.85,591.65 790.60,590.60 791.65,588.85 792.00,586.40"/>
        <lane id=":intersection_1_1_30_1" index="1" speed="7.33" length="11.73" shape="786.40,592.00 790.25,591.65 793.00,590.60 794.65,588.85 795.20,586.40"/>
        <lane id=":intersection_1_1_30_2" index="2" speed="8.10" length="14.57" shape="786.40,592.00 791.65,591.65 795.40,590.60 797.65,588.85 798.40,586.40"/>
    </edge>
    <edge id=":intersection_1_1_33" function="internal">
        <lane id=":intersection_1_1_33_0" index="0" speed="11.11" length="27.37" shape="786.40,595.20 794.50,594.70 800.00,593.60 805.50,592.50 813.60,592.00"/>
        <lane id=":intersection_1_1_33_1" index="1" speed="11.11" length="27.37" shape="786.40,595.20 813.60,595.20"/>
        <lane id=":intersection_1_1_33_2" index="2" speed="11.11" length="27.37" shape="786.40,595.20 794.50,595.70 800.00,596.80 805.50,597.90 813.60,598.40"/>
    </edge>
    <edge id=":intersection_1_1_36" function="internal">
        <lane id=":intersection_1_1_36_0" index="0" speed="11.11" length="16.28" shape="786.40,598.40 795.85,599.35 802.10,601.99"/>
        <lane id=":intersection_1_1_36_1" index="1" speed="10.88" length="12.29" shape="786.40,598.40 794.45,599.35 798.20,601.21"/>
        <lane id=":intersection_1_1_36_2" index="2" speed="10.36" length="9.13" shape="786.40,598.40 793.05,599.35 795.12,600.59"/>
    </edge>
    <edge id=":intersection_1_1_39" function="internal">
        <lane id=":intersection_1_1_39_0" index="0" speed="3.65" length="2.44" shape="786.40,598.40 787.60,599.20 788.00,600.00 787.95,600.09"/>
    </edge>
    <edge id=":intersection_1_1_52" function="internal">
        <lane id=":intersection_1_1_52_0" index="0" speed="11.11" length="13.57" shape="802.10,601.99 802.60,602.20 806.65,606.95 808.00,613.60"/>
    </edge>
    <edge id=":intersection_1_1_53" function="internal">
        <lane id=":intersection_1_1_53_0" index="0" speed="10.88" length="14.85" shape="798.20,601.21 800.20,602.20 803.65,606.95 804.80,613.60"/>
    </edge>
    <edge id=":intersection_1_1_54" function="internal">
        <lane id=":intersection_1_1_54_0" index="0" speed="10.36" length="15.38" shape="795.12,600.59 797.80,602.20 800.65,606.95 801.60,613.60"/>
    </edge>
    <edge id=":intersection_1_1_55" function="internal">
        <lane id=":intersection_1_1_55_0" index="0" speed="3.65" length="2.23" shape="787.95,600.09 787.60,600.80 786.40,601.60"/>
    </edge>
    <edge id=":intersection_1_2_0" function="internal">
        <lane id=":intersection_1_2_0_0" index="0" speed="6.51" length="9.03" shape="792.00,1213.60 791.65,1211.15 790.60,1209.40 788.85,1208.35 786.40,1208.00"/>
        <lane id=":intersection_1_2_0_1" index="1" speed="7.33" length="11.73" shape="792.00,1213.60 791.65,1209.75 790.60,1207.00 788.85,1205.35 786.40,1204.80"/>
        <lane id=":intersection_1_2_0_2" index="2" speed="8.10" length="14.57" shape="792.00,1213.60 791.65,1208.35 790.60,1204.60 788.85,1202.35 786.40,1201.60"/>
    </edge>
    <edge id=":intersection_1_2_3" function="internal">
        <lane id=":intersection_1_2_3_0" index="0" speed="11.11" length="27.37" shape="795.20,1213.60 794.70,1205.50 793.60,1200.00 792.50,1194.50 792.00,1186.40"/>
        <lane id=":intersection_1_2_3_1" index="1" speed="11.11" length="27.37" shape="795.20,1213.60 795.20,1186.40"/>
        <lane id=":intersection_1_2_3_2" index="2" speed="11.11" length="27.37" shape="795.20,1213.60 795.70,1205.50 796.80,1200.00 797.90,1194.50 798.40,1186.40"/>
    </edge>
    <edge id=":intersection_1_2_6" function="internal">
        <lane id=":intersection_1_2_6_0" index="0" speed="11.11" length="16.28" shape="798.40,1213.60 799.35,1204.15 801.99,1197.90"/>
        <lane id=":intersection_1_2_6_1" index="1" speed="10.88" length="12.29" shape="798.40,1213.60 799.35,1205.55 801.21,1201.80"/>
        <lane id=":intersection_1_2_6_2" index="2" speed="10.36" length="9.13" shape="798.40,1213.60 799.35,1206.95 800.59,1204.88"/>
    </edge>
    <edge id=":intersection_1_2_9" function="internal">
        <lane id=":intersection_1_2_9_0" index="0" speed="3.65" length="2.44" shape="798.40,1213.60 799.20,1212.40 800.00,1212.00 800.09,1212.05"/>
    </edge>
    <edge id=":intersection_1_2_40" function="internal">
        <lane id=":intersection_1_2_40_0" index="0" speed="11.11" length="13.57" shape="801.99,1197.90 802.20,1197.40 806.95,1193.35 813.60,1192.00"/>
    </edge>
    <edge id=":intersection_1_2_41" function="internal">
        <lane id=":intersection_1_2_41_0" index="0" speed="10.88" length="14.85" shape="801.21,1201.80 802.20,1199.80 806.95,1196.35 813.60,1195.20"/>
    </edge>
    <edge id=":intersection_1_2_42" function="internal">
        <lane id=":intersection_1_2_42_0" index="0" speed="10.36" length="15.38" shape="800.59,1204.88 802.20,1202.20 806.95,1199.35 813.60,1198.40"/>
    </edge>
    <edge id=":intersection_1_2_43" function="internal">
        <lane id=":intersection_1_2_43_0" index="0" speed="3.65" length="2.23" shape="800.09,1212.05 800.80,1212.40 801.60,1213.60"/>
    </edge>
    <edge id=":intersection_1_2_10" function="internal">
        <lane id=":intersection_1_2_10_0" index="0" speed="6.51" length="9.03" shape="813.60,1208.00 811.15,1208.35 809.40,1209.40 808.35,1211.15 808.00,1213.60"/>
        <lane id=":intersection_1_2_10_1" index="1" speed="7.33" length="11.73" shape="813.60,1208.00 809.75,1208.35 807.00,1209.40 805.35,1211.15 804.80,1213.60"/>
        <lane id=":intersection_1_2_10_2" index="2" speed="8.10" length="14.57" shape="813.60,1208.00 808.35,1208.35 804.60,1209.40 802.35,1211.15 801.60,1213.60"/>
    </edge>
    <edge id=":intersection_1_2_13" function="internal">
        <lane id=":intersection_1_2_13_0" index="0" speed="11.11" length="27.37" shape="813.60,1204.80 805.50,1205.30 800.00,1206.40 794.50,1207.50 786.40,1208.00"/>
        <lane id=":intersection_1_2_13_1" index="1" speed="11.11" length="27.37" shape="813.60,1204.80 786.40,1204.80"/>
        <lane id=":intersection_1_2_13_2" index="2" speed="11.11" length="27.37" shape="813.60,1204.80 805.50,1204.30 800.00,1203.20 794.50,1202.10 786.40,1201.60"/>
    </edge>
    <edge id=":intersection_1_2_16" function="internal">
        <lane id=":intersection_1_2_16_0" index="0" speed="11.11" length="16.28" shape="813.60,1201.60 804.15,1200.65 797.90,1198.01"/>
        <lane id=":intersection_1_2_16_1" index="1" speed="10.88" length="12.29" shape="813.60,1201.60 805.55,1200.65 801.80,1198.79"/>
        <lane id=":intersection_1_2_16_2" index="2" speed="10.36" length="9.13" shape="813.60,1201.60 806.95,1200.65 804.88,1199.41"/>
    </edge>
    <edge id=":intersection_1_2_19" function="internal">
        <lane id=":intersection_1_2_19_0" index="0" speed="3.65" length="2.44" shape="813.60,1201.60 812.40,1200.80 812.00,1200.00 812.05,1199.91"/>
    </edge>
    <edge id=":intersection_1_2_44" function="internal">
        <lane id=":intersection_1_2_44_0" index="0" speed="11.11" length="13.57" shape="797.90,1198.01 797.40,1197.80 793.35,1193.05 792.00,1186.40"/>
    </edge>
    <edge id=":intersection_1_2_45" function="internal">
        <lane id=":intersection_1_2_45_0" index="0" speed="10.88" length="14.85" shape="801.80,1198.79 799.80,1197.80 796.35,1193.05 795.20,1186.40"/>
    </edge>
    <edge id=":intersection_1_2_46" function="internal">
        <lane id=":intersection_1_2_46_0" index="0" speed="10.36" length="15.38" shape="804.88,1199.41 802.20,1197.80 799.35,1193.05 798.40,1186.40"/>
    </edge>
    <edge id=":intersection_1_2_47" function="internal">
        <lane id=":intersection_1_2_47_0" index="0" speed="3.65" length="2.23" shape="812.05,1199.91 812.40,1199.20 813.60,1198.40"/>
    </edge>
    <edge id=":intersection_1_2_20" function="internal">
        <lane id=":intersection_1_2_20_0" index="0" speed="6.51" length="9.03" shape="808.00,1186.40 808.35,1188.85 809.40,1190.60 811.15,1191.65 813.60,1192.00"/>
        <lane id=":intersection_1_2_20_1" index="1" speed="7.33" length="11.73" shape="808.00,1186.40 808.35,1190.25 809.40,1193.00 811.15,1194.65 813.60,1195.20"/>
        <lane id=":intersection_1_2_20_2" index="2" speed="8.10" length="14.57" shape="808.00,1186.40 808.35,1191.65 809.40,1195.40 811.15,1197.65 813.60,1198.40"/>
    </edge>
    <edge id=":intersection_1_2_23" function="internal">
        <lane id=":intersection_1_2_23_0" index="0" speed="11.11" length="27.37" shape="804.80,1186.40 805.30,1194.50 806.40,1200.00 807.50,1205.50 808.00,1213.60"/>
        <lane id=":intersection_1_2_23_1" index="1" speed="11.11" length="27.37" shape="804.80,1186.40 804.80,1213.60"/>
        <lane id=":intersection_1_2_23_2" index="2" speed="11.11" length="27.37" shape="804.80,1186.40 804.30,1194.50 803.20,1200.00 802.10,1205.50 801.60,1213.60"/>
    </edge>
    <edge id=":intersection_1_2_26" function="internal">
        <lane id=":intersection_1_2_26_0" index="0" speed="11.11" length="16.28" shape="801.60,1186.40 800.65,1195.85 798.01,1202.10"/>
        <lane id=":intersection_1_2_26_1" index="1" speed="10.88" length="12.29" shape="801.60,1186.40 800.65,1194.45 798.79,1198.20"/>
        <lane id=":intersection_1_2_26_2" index="2" speed="10.36" length="9.13" shape="801.60,1186.40 800.65,1193.05 799.41,1195.12"/>
    </edge>
    <edge id=":intersection_1_2_29" function="internal">
        <lane id=":intersection_1_2_29_0" index="0" speed="3.65" length="2.44" shape="801.60,1186.40 800.80,1187.60 800.00,1188.00 799.91,1187.95"/>
    </edge>
    <edge id=":intersection_1_2_48" function="internal">
        <lane id=":intersection_1_2_48_0" index="0" speed="11.11" length="13.57" shape="798.01,1202.10 797.80,1202.60 793.05,1206.65 786.40,1208.00"/>
    </edge>
    <edge id=":intersection_1_2_49" function="internal">
        <lane id=":intersection_1_2_49_0" index="0" speed="10.88" length="14.85" shape="798.79,1198.20 797.80,1200.20 793.05,1203.65 786.40,1204.80"/>
    </edge>
    <edge id=":intersection_1_2_50" function="internal">
        <lane id=":intersection_1_2_50_0" index="0" speed="10.36" length="15.38" shape="799.41,1195.12 797.80,1197.80 793.05,1200.65 786.40,1201.60"/>
    </edge>
    <edge id=":intersection_1_2_51" function="internal">
        <lane id=":intersection_1_2_51_0" index="0" speed="3.65" length="2.23" shape="799.91,1187.95 799.20,1187.60 798.40,1186.40"/>
    </edge>
    <edge id=":intersection_1_2_30" function="internal">
        <lane id=":intersection_1_2_30_0" index="0" speed="6.51" length="9.03" shape="786.40,1192.00 788.85,1191.65 790.60,1190.60 791.65,1188.85 792.00,1186.40"/>
        <lane id=":intersection_1_2_30_1" index="1" speed="7.33" length="11.73" shape="786.40,1192.00 790.25,1191.65 793.00,1190.60 794.65,1188.85 795.20,1186.40"/>
        <lane id=":intersection_1_2_30_2" index="2" speed="8.10" length="14.57" shape="786.40,1192.00 791.65,1191.65 795.40,1190.60 797.65,1188.85 798.40,1186.40"/>
    </edge>
    <edge id=":intersection_1_2_33" function="internal">
        <lane id=":intersection_1_2_33_0" index="0" speed="11.11" length="27.37" shape="786.40,1195.20 794.50,1194.70 800.00,1193.60 805.50,1192.50 813.60,1192.00"/>
        <lane id=":intersection_1_2_33_1" index="1" speed="11.11" length="27.37" shape="786.40,1195.20 813.60,1195.20"/>
        <lane id=":intersection_1_2_33_2" index="2" speed="11.11" length="27.37" shape="786.40,1195.20 794.50,1195.70 800.00,1196.80 805.50,1197.90 813.60,1198.40"/>
    </edge>
    <edge id=":intersection_1_2_36" function="internal">
        <lane id=":intersection_1_2_36_0" index="0" speed="11.11" length="16.28" shape="786.40,1198.40 795.85,1199.35 802.10,1201.99"/>
        <lane id=":intersection_1_2_36_1" index="1" speed="10.88" length="12.29" shape="786.40,1198.40 794.45,1199.35 798.20,1201.21"/>
        <lane id=":intersection_1_2_36_2" index="2" speed="10.36" length="9.13" shape="786.40,1198.40 793.05,1199.35 795.12,1200.59"/>
    </edge>
    <edge id=":intersection_1_2_39" function="internal">
        <lane id=":intersection_1_2_39_0" index="0" speed="3.65" length="2.44" shape="786.40,1198.40 787.60,1199.20 788.00,1200.00 787.95,1200.09"/>
    </edge>
    <edge id=":intersection_1_2_52" function="internal">
        <lane id=":intersection_1_2_52_0" index="0" speed="11.11" length="13.57" shape="802.10,1201.99 802.60,1202.20 806.65,1206.95 808.00,1213.60"/>
    </edge>
    <edge id=":intersection_1_2_53" function="internal">
        <lane id=":intersection_1_2_53_0" index="0" speed="10.88" length="14.85" shape="798.20,1201.21 800.20,1202.20 803.65,1206.95 804.80,1213.60"/>
    </edge>
    <edge id=":intersection_1_2_54" function="internal">
        <lane id=":intersection_1_2_54_0" index="0" speed="10.36" length="15.38" shape="795.12,1200.59 797.80,1202.20 800.65,1206.95 801.60,1213.60"/>
    </edge>
    <edge id=":intersection_1_2_55" function="internal">
        <lane id=":intersection_1_2_55_0" index="0" speed="3.65" length="2.23" shape="787.95,1200.09 787.60,1200.80 786.40,1201.60"/>
    </edge>
    <edge id=":intersection_1_3_0" function="internal">
        <lane id=":intersection_1_3_0_0" index="0" speed="6.51" length="9.03" shape="792.00,1813.60 791.65,1811.15 790.60,1809.40 788.85,1808.35 786.40,1808.00"/>
        <lane id=":intersection_1_3_0_1" index="1" speed="7.33" length="11.73" shape="792.00,1813.60 791.65,1809.75 790.60,1807.00 788.85,1805.35 786.40,1804.80"/>
        <lane id=":intersection_1_3_0_2" index="2" speed="8.10" length="14.57" shape="792.00,1813.60 791.65,1808.35 790.60,1804.60 788.85,1802.35 786.40,1801.60"/>
    </edge>
    <edge id=":intersection_1_3_3" function="internal">
        <lane id=":intersection_1_3_3_0" index="0" speed="11.11" length="27.37" shape="795.20,1813.60 794.70,1805.50 793.60,1800.00 792.50,1794.50 792.00,1786.40"/>
        <lane id=":intersection_1_3_3_1" index="1" speed="11.11" length="27.37" shape="795.20,1813.60 795.20,1786.40"/>
        <lane id=":intersection_1_3_3_2" index="2" speed="11.11" length="27.37" shape="795.20,1813.60 795.70,1805.50 796.80,1800.00 797.90,1794.50 798.40,1786.40"/>
    </edge>
    <edge id=":intersection_1_3_6" function="internal">
        <lane id=":intersection_1_3_6_0" index="0" speed="11.11" length="16.28" shape="798.40,1813.60 799.35,1804.15 801.99,1797.90"/>
        <lane id=":intersection_1_3_6_1" index="1" speed="10.88" length="12.29" shape="798.40,1813.60 799.35,1805.55 801.21,1801.80"/>
        <lane id=":intersection_1_3_6_2" index="2" speed="10.36" length="9.13" shape="798.40,1813.60 799.35,1806.95 800.59,1804.88"/>
    </edge>
    <edge id=":intersection_1_3_9" function="internal">
        <lane id=":intersection_1_3_9_0" index="0" speed="3.65" length="2.44" shape="798.40,1813.60 799.20,1812.40 800.00,1812.00 800.09,1812.05"/>
    </edge>
    <edge id=":intersection_1_3_40" function="internal">
        <lane id=":intersection_1_3_40_0" index="0" speed="11.11" length="13.57" shape="801.99,1797.90 802.20,1797.40 806.95,1793.35 813.60,1792.00"/>
    </edge>
    <edge id=":intersection_1_3_41" function="internal">
        <lane id=":intersection_1_3_41_0" index="0" speed="10.88" length="14.85" shape="801.21,1801.80 802.20,1799.80 806.95,1796.35 813.60,1795.20"/>
    </edge>
    <edge id=":intersection_1_3_42" function="internal">
        <lane id=":intersection_1_3_42_0" index="0" speed="10.36" length="15.38" shape="800.59,1804.88 802.20,1802.20 806.95,1799.35 813.60,1798.40"/>
    </edge>
    <edge id=":intersection_1_3_43" function="internal">
        <lane id=":intersection_1_3_43_0" index="0" speed="3.65" length="2.23" shape="800.09,1812.05 800.80,1812.40 801.60,1813.60"/>
    </edge>
    <edge id=":intersection_1_3_10" function="internal">
        <lane id=":intersection_1_3_10_0" index="0" speed="6.51" length="9.03" shape="813.60,1808.00 811.15,1808.35 809.40,1809.40 808.35,1811.15 808.00,1813.60"/>
        <lane id=":intersection_1_3_10_1" index="1" speed="7.33" length="11.73" shape="813.60,1808.00 809.75,1808.35 807.00,1809.40 805.35,1811.15 804.80,1813.60"/>
        <lane id=":intersection_1_3_10_2" index="2" speed="8.10" length="14.57" shape="813.60,1808.00 808.35,1808.35 804.60,1809.40 802.35,1811.15 801.60,1813.60"/>
    </edge>
    <edge id=":intersection_1_3_13" function="internal">
        <lane id=":intersection_1_3_13_0" index="0" speed="11.11" length="27.37" shape="813.60,1804.80 805.50,1805.30 800.00,1806.40 794.50,1807.50 786.40,1808.00"/>
        <lane id=":intersection_1_3_13_1" index="1" speed="11.11" length="27.37" shape="813.60,1804.80 786.40,1804.80"/>
        <lane id=":intersection_1_3_13_2" index="2" speed="11.11" length="27.37" shape="813.60,1804.80 805.50,1804.30 800.00,1803.20 794.50,1802.10 786.40,1801.60"/>
    </edge>
    <edge id=":intersection_1_3_16" function="internal">
        <lane id=":intersection_1_3_16_0" index="0" speed="11.11" length="16.28" shape="813.60,1801.60 804.15,1800.65 797.90,1798.01"/>
        <lane id=":intersection_1_3_16_1" index="1" speed="10.88" length="12.29" shape="813.60,1801.60 805.55,1800.65 801.80,1798.79"/>
        <lane id=":intersection_1_3_16_2" index="2" speed="10.36" length="9.13" shape="813.60,1801.60 806.95,1800.65 804.88,1799.41"/>
    </edge>
    <edge id=":intersection_1_3_19" function="internal">
        <lane id=":intersection_1_3_19_0" index="0" speed="3.65" length="2.44" shape="813.60,1801.60 812.40,1800.80 812.00,1800.00 812.05,1799.91"/>
    </edge>
    <edge id=":intersection_1_3_44" function="internal">
        <lane id=":intersection_1_3_44_0" index="0" speed="11.11" length="13.57" shape="797.90,1798.01 797.40,1797.80 793.35,1793.05 792.00,1786.40"/>
    </edge>
    <edge id=":intersection_1_3_45" function="internal">
        <lane id=":intersection_1_3_45_0" index="0" speed="10.88" length="14.85" shape="801.80,1798.79 799.80,1797.80 796.35,1793.05 795.20,1786.40"/>
    </edge>
    <edge id=":intersection_1_3_46" function="internal">
        <lane id=":intersection_1_3_46_0" index="0" speed="10.36" length="15.38" shape="804.88,1799.41 802.20,1797.80 799.35,1793.05 798.40,1786.40"/>
    </edge>
    <edge id=":intersection_1_3_47" function="internal">
        <lane id=":intersection_1_3_47_0" index="0" speed="3.65" length="2.23" shape="812.05,1799.91 812.40,1799.20 813.60,1798.40"/>
    </edge>
    <edge id=":intersection_1_3_20" function="internal">
        <lane id=":intersection_1_3_20_0" index="0" speed="6.51" length="9.03" shape="808.00,1786.40 808.35,1788.85 809.40,1790.60 811.15,1791.65 813.60,1792.00"/>
        <lane id=":intersection_1_3_20_1" index="1" speed="7.33" length="11.73" shape="808.00,1786.40 808.35,1790.25 809.40,1793.00 811.15,1794.65 813.60,1795.20"/>
        <lane id=":intersection_1_3_20_2" index="2" speed="8.10" length="14.57" shape="808.00,1786.40 808.35,1791.65 809.40,1795.40 811.15,1797.65 813.60,1798.40"/>
    </edge>
    <edge id=":intersection_1_3_23" function="internal">
        <lane id=":intersection_1_3_23_0" index="0" speed="11.11" length="27.37" shape="804.80,1786.40 805.30,1794.50 806.40,1800.00 807.50,1805.50 808.00,1813.60"/>
        <lane id=":intersection_1_3_23_1" index="1" speed="11.11" length="27.37" shape="804.80,1786.40 804.80,1813.60"/>
        <lane id=":intersection_1_3_23_2" index="2" speed="11.11" length="27.37" shape="804.80,1786.40 804.30,1794.50 803.20,1800.00 802.10,1805.50 801.60,1813.60"/>
    </edge>
    <edge id=":intersection_1_3_26" function="internal">