<?xml version="1.0" encoding="utf-8"?>
<configuration>
	<input>
		<net-file value="4_Phase.net.xml"/>
		<route-files value="uniform_4200.rou.xml"/>
	</input>
	<time>
		<begin value="0"/>
		<end value="1800"/>
	</time>
	<output>
	    <tripinfo-output value="tripinfo_output_route.xml"/>
	</output>
</configuration>
